data_image0
_chemical_formula_structural       Li8P4N4O8Li8P4N4O8Li8P4N4O8Li8P4N4O8Li8P4N4O8Li8P4N4O8Li8P4N4O8Li8P4N4O8Li8P4N4O8Li8P4N4O8Li8P4N4O8Li8P4N4O8Li8P4N4O8Li8P4N4O8Li8P4N4O8Li8P4N4O8Li8P4N4O8Li8P4N4O8Li8P4N4O8Li8P4N4O8Li8P4N4O8Li8P4N4O8Li8P4N4O8Li8P4N4O8Li8P4N4O8Li8P4N4O8Li8P4N4O8Li8P4N4O8Li8P4N4O8Li8P4N4O8Li8P4N4O8Li8P4N4O8Li8P4N4O8Li8P4N4O8Li8P4N4O8Li8P4N4O8Li8P4N4O8Li8P4N4O8Li8P4N4O8Li8P4N4O8Li8P4N4O8Li8P4N4O8Li8P4N4O8Li8P4N4O8Li8P4N4O8Li8P4N4O8Li8P4N4O8Li8P4N4O8Li8P4N4O8Li8P4N4O8Li8P4N4O8Li8P4N4O8Li8P4N4O8Li8P4N4O8Li8P4N4O8Li8P4N4O8Li8P4N4O8Li8P4N4O8Li8P4N4O8Li8P4N4O8Li8P4N4O8Li8P4N4O8Li8P4N4O8Li8P4N4O8Li8P4N4O8Li8P4N4O8Li8P4N4O8Li8P4N4O8Li8P4N4O8Li8P4N4O8Li8P4N4O8Li8P4N4O8Li8P4N4O8Li8P4N4O8Li8P4N4O8Li8P4N4O8Li8P4N4O8Li8P4N4O8Li8P4N4O8Li8P4N4O8Li8P4N4O8Li8P4N4O8Li8P4N4O8Li8P4N4O8Li8P4N4O8Li8P4N4O8Li8P4N4O8Li8P4N4O8Li8P4N4O8Li8P4N4O8
_chemical_formula_sum              "Li720 P360 N360 O720"
_cell_length_a       27.305130000000002
_cell_length_b       27.467604
_cell_length_c       28.493814
_cell_angle_alpha    90.0
_cell_angle_beta     90.0
_cell_angle_gamma    90.0

_space_group_name_H-M_alt    "P 1"
_space_group_IT_number       1

loop_
  _space_group_symop_operation_xyz
  'x, y, z'

loop_
  _atom_site_type_symbol
  _atom_site_label
  _atom_site_symmetry_multiplicity
  _atom_site_fract_x
  _atom_site_fract_y
  _atom_site_fract_z
  _atom_site_occupancy
  Li  Li1       1.0  0.1318929  0.22189049999999996  0.08359266666666666  1.0000
  Li  Li2       1.0  0.1318929  0.11144283333333331  0.08359266666666666  1.0000
  Li  Li3       1.0  0.0681071  0.11144283333333331  0.0002593333333333333  1.0000
  Li  Li4       1.0  0.0681071  0.22189049999999996  0.0002593333333333333  1.0000
  Li  Li5       1.0  0.0318929  0.055223833333333326  0.08359266666666666  1.0000
  Li  Li6       1.0  0.0318929  0.2781095  0.08359266666666666  1.0000
  Li  Li7       1.0  0.16810709999999998  0.2781095  0.0002593333333333333  1.0000
  Li  Li8       1.0  0.16810709999999998  0.055223833333333326  0.0002593333333333333  1.0000
  P   P1        1.0  0.13075000000000003  0.0  0.08308516666666665  1.0000
  P   P2        1.0  0.06924999999999999  0.0  0.1664185  1.0000
  P   P3        1.0  0.03075  0.16666666666666666  0.08308516666666665  1.0000
  P   P4        1.0  0.16924999999999998  0.16666666666666666  0.1664185  1.0000
  N   N1        1.0  0.07740000000000001  0.0  0.05686266666666666  1.0000
  N   N2        1.0  0.12259999999999999  0.0  0.14019599999999996  1.0000
  N   N3        1.0  0.17739999999999997  0.16666666666666666  0.05686266666666666  1.0000
  N   N4        1.0  0.022600000000000002  0.16666666666666666  0.14019599999999996  1.0000
  O   O1        1.0  0.16108999999999998  0.046348999999999994  0.06985016666666664  1.0000
  O   O2        1.0  0.16108999999999998  0.2869843333333333  0.06985016666666664  1.0000
  O   O3        1.0  0.03891  0.2869843333333333  0.15318349999999997  1.0000
  O   O4        1.0  0.03891  0.046348999999999994  0.15318349999999997  1.0000
  O   O5        1.0  0.06109  0.21301566666666666  0.06985016666666664  1.0000
  O   O6        1.0  0.06109  0.12031766666666666  0.06985016666666664  1.0000
  O   O7        1.0  0.13891  0.12031766666666666  0.15318349999999997  1.0000
  O   O8        1.0  0.13891  0.21301566666666666  0.15318349999999997  1.0000
  Li  Li9       1.0  0.1318929  0.22189049999999996  0.2502593333333333  1.0000
  Li  Li10      1.0  0.1318929  0.11144283333333331  0.2502593333333333  1.0000
  Li  Li11      1.0  0.0681071  0.11144283333333331  0.166926  1.0000
  Li  Li12      1.0  0.0681071  0.22189049999999996  0.166926  1.0000
  Li  Li13      1.0  0.0318929  0.055223833333333326  0.2502593333333333  1.0000
  Li  Li14      1.0  0.0318929  0.2781095  0.2502593333333333  1.0000
  Li  Li15      1.0  0.16810709999999998  0.2781095  0.166926  1.0000
  Li  Li16      1.0  0.16810709999999998  0.055223833333333326  0.166926  1.0000
  P   P5        1.0  0.13075000000000003  0.0  0.2497518333333333  1.0000
  P   P6        1.0  0.06924999999999999  0.0  0.33308516666666665  1.0000
  P   P7        1.0  0.03075  0.16666666666666666  0.2497518333333333  1.0000
  P   P8        1.0  0.16924999999999998  0.16666666666666666  0.33308516666666665  1.0000
  N   N5        1.0  0.07740000000000001  0.0  0.22352933333333333  1.0000
  N   N6        1.0  0.12259999999999999  0.0  0.3068626666666666  1.0000
  N   N7        1.0  0.17739999999999997  0.16666666666666666  0.22352933333333333  1.0000
  N   N8        1.0  0.022600000000000002  0.16666666666666666  0.3068626666666666  1.0000
  O   O9        1.0  0.16108999999999998  0.046348999999999994  0.2365168333333333  1.0000
  O   O10       1.0  0.16108999999999998  0.2869843333333333  0.2365168333333333  1.0000
  O   O11       1.0  0.03891  0.2869843333333333  0.31985016666666666  1.0000
  O   O12       1.0  0.03891  0.046348999999999994  0.31985016666666666  1.0000
  O   O13       1.0  0.06109  0.21301566666666666  0.2365168333333333  1.0000
  O   O14       1.0  0.06109  0.12031766666666666  0.2365168333333333  1.0000
  O   O15       1.0  0.13891  0.12031766666666666  0.31985016666666666  1.0000
  O   O16       1.0  0.13891  0.21301566666666666  0.31985016666666666  1.0000
  Li  Li17      1.0  0.1318929  0.22189049999999996  0.41692599999999996  1.0000
  Li  Li18      1.0  0.1318929  0.11144283333333331  0.41692599999999996  1.0000
  Li  Li19      1.0  0.0681071  0.11144283333333331  0.3335926666666666  1.0000
  Li  Li20      1.0  0.0681071  0.22189049999999996  0.3335926666666666  1.0000
  Li  Li21      1.0  0.0318929  0.055223833333333326  0.41692599999999996  1.0000
  Li  Li22      1.0  0.0318929  0.2781095  0.41692599999999996  1.0000
  Li  Li23      1.0  0.16810709999999998  0.2781095  0.3335926666666666  1.0000
  Li  Li24      1.0  0.16810709999999998  0.055223833333333326  0.3335926666666666  1.0000
  P   P9        1.0  0.13075000000000003  0.0  0.41641849999999997  1.0000
  P   P10       1.0  0.06924999999999999  0.0  0.49975183333333323  1.0000
  P   P11       1.0  0.03075  0.16666666666666666  0.41641849999999997  1.0000
  P   P12       1.0  0.16924999999999998  0.16666666666666666  0.49975183333333323  1.0000
  N   N9        1.0  0.07740000000000001  0.0  0.39019599999999993  1.0000
  N   N10       1.0  0.12259999999999999  0.0  0.47352933333333325  1.0000
  N   N11       1.0  0.17739999999999997  0.16666666666666666  0.39019599999999993  1.0000
  N   N12       1.0  0.022600000000000002  0.16666666666666666  0.47352933333333325  1.0000
  O   O17       1.0  0.16108999999999998  0.046348999999999994  0.4031835  1.0000
  O   O18       1.0  0.16108999999999998  0.2869843333333333  0.4031835  1.0000
  O   O19       1.0  0.03891  0.2869843333333333  0.4865168333333333  1.0000
  O   O20       1.0  0.03891  0.046348999999999994  0.4865168333333333  1.0000
  O   O21       1.0  0.06109  0.21301566666666666  0.4031835  1.0000
  O   O22       1.0  0.06109  0.12031766666666666  0.4031835  1.0000
  O   O23       1.0  0.13891  0.12031766666666666  0.4865168333333333  1.0000
  O   O24       1.0  0.13891  0.21301566666666666  0.4865168333333333  1.0000
  Li  Li25      1.0  0.1318929  0.22189049999999996  0.5835926666666665  1.0000
  Li  Li26      1.0  0.1318929  0.11144283333333331  0.5835926666666665  1.0000
  Li  Li27      1.0  0.0681071  0.11144283333333331  0.5002593333333333  1.0000
  Li  Li28      1.0  0.0681071  0.22189049999999996  0.5002593333333333  1.0000
  Li  Li29      1.0  0.0318929  0.055223833333333326  0.5835926666666665  1.0000
  Li  Li30      1.0  0.0318929  0.2781095  0.5835926666666665  1.0000
  Li  Li31      1.0  0.16810709999999998  0.2781095  0.5002593333333333  1.0000
  Li  Li32      1.0  0.16810709999999998  0.055223833333333326  0.5002593333333333  1.0000
  P   P13       1.0  0.13075000000000003  0.0  0.5830851666666667  1.0000
  P   P14       1.0  0.06924999999999999  0.0  0.6664185  1.0000
  P   P15       1.0  0.03075  0.16666666666666666  0.5830851666666667  1.0000
  P   P16       1.0  0.16924999999999998  0.16666666666666666  0.6664185  1.0000
  N   N13       1.0  0.07740000000000001  0.0  0.5568626666666666  1.0000
  N   N14       1.0  0.12259999999999999  0.0  0.6401959999999999  1.0000
  N   N15       1.0  0.17739999999999997  0.16666666666666666  0.5568626666666666  1.0000
  N   N16       1.0  0.022600000000000002  0.16666666666666666  0.6401959999999999  1.0000
  O   O25       1.0  0.16108999999999998  0.046348999999999994  0.5698501666666667  1.0000
  O   O26       1.0  0.16108999999999998  0.2869843333333333  0.5698501666666667  1.0000
  O   O27       1.0  0.03891  0.2869843333333333  0.6531834999999999  1.0000
  O   O28       1.0  0.03891  0.046348999999999994  0.6531834999999999  1.0000
  O   O29       1.0  0.06109  0.21301566666666666  0.5698501666666667  1.0000
  O   O30       1.0  0.06109  0.12031766666666666  0.5698501666666667  1.0000
  O   O31       1.0  0.13891  0.12031766666666666  0.6531834999999999  1.0000
  O   O32       1.0  0.13891  0.21301566666666666  0.6531834999999999  1.0000
  Li  Li33      1.0  0.1318929  0.22189049999999996  0.7502593333333332  1.0000
  Li  Li34      1.0  0.1318929  0.11144283333333331  0.7502593333333332  1.0000
  Li  Li35      1.0  0.0681071  0.11144283333333331  0.666926  1.0000
  Li  Li36      1.0  0.0681071  0.22189049999999996  0.666926  1.0000
  Li  Li37      1.0  0.0318929  0.055223833333333326  0.7502593333333332  1.0000
  Li  Li38      1.0  0.0318929  0.2781095  0.7502593333333332  1.0000
  Li  Li39      1.0  0.16810709999999998  0.2781095  0.666926  1.0000
  Li  Li40      1.0  0.16810709999999998  0.055223833333333326  0.666926  1.0000
  P   P17       1.0  0.13075000000000003  0.0  0.7497518333333333  1.0000
  P   P18       1.0  0.06924999999999999  0.0  0.8330851666666667  1.0000
  P   P19       1.0  0.03075  0.16666666666666666  0.7497518333333333  1.0000
  P   P20       1.0  0.16924999999999998  0.16666666666666666  0.8330851666666667  1.0000
  N   N17       1.0  0.07740000000000001  0.0  0.7235293333333334  1.0000
  N   N18       1.0  0.12259999999999999  0.0  0.8068626666666665  1.0000
  N   N19       1.0  0.17739999999999997  0.16666666666666666  0.7235293333333334  1.0000
  N   N20       1.0  0.022600000000000002  0.16666666666666666  0.8068626666666665  1.0000
  O   O33       1.0  0.16108999999999998  0.046348999999999994  0.7365168333333333  1.0000
  O   O34       1.0  0.16108999999999998  0.2869843333333333  0.7365168333333333  1.0000
  O   O35       1.0  0.03891  0.2869843333333333  0.8198501666666667  1.0000
  O   O36       1.0  0.03891  0.046348999999999994  0.8198501666666667  1.0000
  O   O37       1.0  0.06109  0.21301566666666666  0.7365168333333333  1.0000
  O   O38       1.0  0.06109  0.12031766666666666  0.7365168333333333  1.0000
  O   O39       1.0  0.13891  0.12031766666666666  0.8198501666666667  1.0000
  O   O40       1.0  0.13891  0.21301566666666666  0.8198501666666667  1.0000
  Li  Li41      1.0  0.1318929  0.22189049999999996  0.9169259999999998  1.0000
  Li  Li42      1.0  0.1318929  0.11144283333333331  0.9169259999999998  1.0000
  Li  Li43      1.0  0.0681071  0.11144283333333331  0.8335926666666665  1.0000
  Li  Li44      1.0  0.0681071  0.22189049999999996  0.8335926666666665  1.0000
  Li  Li45      1.0  0.0318929  0.055223833333333326  0.9169259999999998  1.0000
  Li  Li46      1.0  0.0318929  0.2781095  0.9169259999999998  1.0000
  Li  Li47      1.0  0.16810709999999998  0.2781095  0.8335926666666665  1.0000
  Li  Li48      1.0  0.16810709999999998  0.055223833333333326  0.8335926666666665  1.0000
  P   P21       1.0  0.13075000000000003  0.0  0.9164184999999998  1.0000
  P   P22       1.0  0.06924999999999999  0.0  0.9997518333333333  1.0000
  P   P23       1.0  0.03075  0.16666666666666666  0.9164184999999998  1.0000
  P   P24       1.0  0.16924999999999998  0.16666666666666666  0.9997518333333333  1.0000
  N   N21       1.0  0.07740000000000001  0.0  0.8901959999999999  1.0000
  N   N22       1.0  0.12259999999999999  0.0  0.9735293333333331  1.0000
  N   N23       1.0  0.17739999999999997  0.16666666666666666  0.8901959999999999  1.0000
  N   N24       1.0  0.022600000000000002  0.16666666666666666  0.9735293333333331  1.0000
  O   O41       1.0  0.16108999999999998  0.046348999999999994  0.9031834999999999  1.0000
  O   O42       1.0  0.16108999999999998  0.2869843333333333  0.9031834999999999  1.0000
  O   O43       1.0  0.03891  0.2869843333333333  0.9865168333333332  1.0000
  O   O44       1.0  0.03891  0.046348999999999994  0.9865168333333332  1.0000
  O   O45       1.0  0.06109  0.21301566666666666  0.9031834999999999  1.0000
  O   O46       1.0  0.06109  0.12031766666666666  0.9031834999999999  1.0000
  O   O47       1.0  0.13891  0.12031766666666666  0.9865168333333332  1.0000
  O   O48       1.0  0.13891  0.21301566666666666  0.9865168333333332  1.0000
  Li  Li49      1.0  0.1318929  0.5552238333333332  0.08359266666666666  1.0000
  Li  Li50      1.0  0.1318929  0.44477616666666664  0.08359266666666666  1.0000
  Li  Li51      1.0  0.0681071  0.44477616666666664  0.0002593333333333333  1.0000
  Li  Li52      1.0  0.0681071  0.5552238333333332  0.0002593333333333333  1.0000
  Li  Li53      1.0  0.0318929  0.3885571666666666  0.08359266666666666  1.0000
  Li  Li54      1.0  0.0318929  0.6114428333333333  0.08359266666666666  1.0000
  Li  Li55      1.0  0.16810709999999998  0.6114428333333333  0.0002593333333333333  1.0000
  Li  Li56      1.0  0.16810709999999998  0.3885571666666666  0.0002593333333333333  1.0000
  P   P25       1.0  0.13075000000000003  0.3333333333333333  0.08308516666666665  1.0000
  P   P26       1.0  0.06924999999999999  0.3333333333333333  0.1664185  1.0000
  P   P27       1.0  0.03075  0.49999999999999994  0.08308516666666665  1.0000
  P   P28       1.0  0.16924999999999998  0.49999999999999994  0.1664185  1.0000
  N   N25       1.0  0.07740000000000001  0.3333333333333333  0.05686266666666666  1.0000
  N   N26       1.0  0.12259999999999999  0.3333333333333333  0.14019599999999996  1.0000
  N   N27       1.0  0.17739999999999997  0.49999999999999994  0.05686266666666666  1.0000
  N   N28       1.0  0.022600000000000002  0.49999999999999994  0.14019599999999996  1.0000
  O   O49       1.0  0.16108999999999998  0.3796823333333333  0.06985016666666664  1.0000
  O   O50       1.0  0.16108999999999998  0.6203176666666665  0.06985016666666664  1.0000
  O   O51       1.0  0.03891  0.6203176666666665  0.15318349999999997  1.0000
  O   O52       1.0  0.03891  0.3796823333333333  0.15318349999999997  1.0000
  O   O53       1.0  0.06109  0.546349  0.06985016666666664  1.0000
  O   O54       1.0  0.06109  0.45365099999999997  0.06985016666666664  1.0000
  O   O55       1.0  0.13891  0.45365099999999997  0.15318349999999997  1.0000
  O   O56       1.0  0.13891  0.546349  0.15318349999999997  1.0000
  Li  Li57      1.0  0.1318929  0.5552238333333332  0.2502593333333333  1.0000
  Li  Li58      1.0  0.1318929  0.44477616666666664  0.2502593333333333  1.0000
  Li  Li59      1.0  0.0681071  0.44477616666666664  0.166926  1.0000
  Li  Li60      1.0  0.0681071  0.5552238333333332  0.166926  1.0000
  Li  Li61      1.0  0.0318929  0.3885571666666666  0.2502593333333333  1.0000
  Li  Li62      1.0  0.0318929  0.6114428333333333  0.2502593333333333  1.0000
  Li  Li63      1.0  0.16810709999999998  0.6114428333333333  0.166926  1.0000
  Li  Li64      1.0  0.16810709999999998  0.3885571666666666  0.166926  1.0000
  P   P29       1.0  0.13075000000000003  0.3333333333333333  0.2497518333333333  1.0000
  P   P30       1.0  0.06924999999999999  0.3333333333333333  0.33308516666666665  1.0000
  P   P31       1.0  0.03075  0.49999999999999994  0.2497518333333333  1.0000
  P   P32       1.0  0.16924999999999998  0.49999999999999994  0.33308516666666665  1.0000
  N   N29       1.0  0.07740000000000001  0.3333333333333333  0.22352933333333333  1.0000
  N   N30       1.0  0.12259999999999999  0.3333333333333333  0.3068626666666666  1.0000
  N   N31       1.0  0.17739999999999997  0.49999999999999994  0.22352933333333333  1.0000
  N   N32       1.0  0.022600000000000002  0.49999999999999994  0.3068626666666666  1.0000
  O   O57       1.0  0.16108999999999998  0.3796823333333333  0.2365168333333333  1.0000
  O   O58       1.0  0.16108999999999998  0.6203176666666665  0.2365168333333333  1.0000
  O   O59       1.0  0.03891  0.6203176666666665  0.31985016666666666  1.0000
  O   O60       1.0  0.03891  0.3796823333333333  0.31985016666666666  1.0000
  O   O61       1.0  0.06109  0.546349  0.2365168333333333  1.0000
  O   O62       1.0  0.06109  0.45365099999999997  0.2365168333333333  1.0000
  O   O63       1.0  0.13891  0.45365099999999997  0.31985016666666666  1.0000
  O   O64       1.0  0.13891  0.546349  0.31985016666666666  1.0000
  Li  Li65      1.0  0.1318929  0.5552238333333332  0.41692599999999996  1.0000
  Li  Li66      1.0  0.1318929  0.44477616666666664  0.41692599999999996  1.0000
  Li  Li67      1.0  0.0681071  0.44477616666666664  0.3335926666666666  1.0000
  Li  Li68      1.0  0.0681071  0.5552238333333332  0.3335926666666666  1.0000
  Li  Li69      1.0  0.0318929  0.3885571666666666  0.41692599999999996  1.0000
  Li  Li70      1.0  0.0318929  0.6114428333333333  0.41692599999999996  1.0000
  Li  Li71      1.0  0.16810709999999998  0.6114428333333333  0.3335926666666666  1.0000
  Li  Li72      1.0  0.16810709999999998  0.3885571666666666  0.3335926666666666  1.0000
  P   P33       1.0  0.13075000000000003  0.3333333333333333  0.41641849999999997  1.0000
  P   P34       1.0  0.06924999999999999  0.3333333333333333  0.49975183333333323  1.0000
  P   P35       1.0  0.03075  0.49999999999999994  0.41641849999999997  1.0000
  P   P36       1.0  0.16924999999999998  0.49999999999999994  0.49975183333333323  1.0000
  N   N33       1.0  0.07740000000000001  0.3333333333333333  0.39019599999999993  1.0000
  N   N34       1.0  0.12259999999999999  0.3333333333333333  0.47352933333333325  1.0000
  N   N35       1.0  0.17739999999999997  0.49999999999999994  0.39019599999999993  1.0000
  N   N36       1.0  0.022600000000000002  0.49999999999999994  0.47352933333333325  1.0000
  O   O65       1.0  0.16108999999999998  0.3796823333333333  0.4031835  1.0000
  O   O66       1.0  0.16108999999999998  0.6203176666666665  0.4031835  1.0000
  O   O67       1.0  0.03891  0.6203176666666665  0.4865168333333333  1.0000
  O   O68       1.0  0.03891  0.3796823333333333  0.4865168333333333  1.0000
  O   O69       1.0  0.06109  0.546349  0.4031835  1.0000
  O   O70       1.0  0.06109  0.45365099999999997  0.4031835  1.0000
  O   O71       1.0  0.13891  0.45365099999999997  0.4865168333333333  1.0000
  O   O72       1.0  0.13891  0.546349  0.4865168333333333  1.0000
  Li  Li73      1.0  0.1318929  0.5552238333333332  0.5835926666666665  1.0000
  Li  Li74      1.0  0.1318929  0.44477616666666664  0.5835926666666665  1.0000
  Li  Li75      1.0  0.0681071  0.44477616666666664  0.5002593333333333  1.0000
  Li  Li76      1.0  0.0681071  0.5552238333333332  0.5002593333333333  1.0000
  Li  Li77      1.0  0.0318929  0.3885571666666666  0.5835926666666665  1.0000
  Li  Li78      1.0  0.0318929  0.6114428333333333  0.5835926666666665  1.0000
  Li  Li79      1.0  0.16810709999999998  0.6114428333333333  0.5002593333333333  1.0000
  Li  Li80      1.0  0.16810709999999998  0.3885571666666666  0.5002593333333333  1.0000
  P   P37       1.0  0.13075000000000003  0.3333333333333333  0.5830851666666667  1.0000
  P   P38       1.0  0.06924999999999999  0.3333333333333333  0.6664185  1.0000
  P   P39       1.0  0.03075  0.49999999999999994  0.5830851666666667  1.0000
  P   P40       1.0  0.16924999999999998  0.49999999999999994  0.6664185  1.0000
  N   N37       1.0  0.07740000000000001  0.3333333333333333  0.5568626666666666  1.0000
  N   N38       1.0  0.12259999999999999  0.3333333333333333  0.6401959999999999  1.0000
  N   N39       1.0  0.17739999999999997  0.49999999999999994  0.5568626666666666  1.0000
  N   N40       1.0  0.022600000000000002  0.49999999999999994  0.6401959999999999  1.0000
  O   O73       1.0  0.16108999999999998  0.3796823333333333  0.5698501666666667  1.0000
  O   O74       1.0  0.16108999999999998  0.6203176666666665  0.5698501666666667  1.0000
  O   O75       1.0  0.03891  0.6203176666666665  0.6531834999999999  1.0000
  O   O76       1.0  0.03891  0.3796823333333333  0.6531834999999999  1.0000
  O   O77       1.0  0.06109  0.546349  0.5698501666666667  1.0000
  O   O78       1.0  0.06109  0.45365099999999997  0.5698501666666667  1.0000
  O   O79       1.0  0.13891  0.45365099999999997  0.6531834999999999  1.0000
  O   O80       1.0  0.13891  0.546349  0.6531834999999999  1.0000
  Li  Li81      1.0  0.1318929  0.5552238333333332  0.7502593333333332  1.0000
  Li  Li82      1.0  0.1318929  0.44477616666666664  0.7502593333333332  1.0000
  Li  Li83      1.0  0.0681071  0.44477616666666664  0.666926  1.0000
  Li  Li84      1.0  0.0681071  0.5552238333333332  0.666926  1.0000
  Li  Li85      1.0  0.0318929  0.3885571666666666  0.7502593333333332  1.0000
  Li  Li86      1.0  0.0318929  0.6114428333333333  0.7502593333333332  1.0000
  Li  Li87      1.0  0.16810709999999998  0.6114428333333333  0.666926  1.0000
  Li  Li88      1.0  0.16810709999999998  0.3885571666666666  0.666926  1.0000
  P   P41       1.0  0.13075000000000003  0.3333333333333333  0.7497518333333333  1.0000
  P   P42       1.0  0.06924999999999999  0.3333333333333333  0.8330851666666667  1.0000
  P   P43       1.0  0.03075  0.49999999999999994  0.7497518333333333  1.0000
  P   P44       1.0  0.16924999999999998  0.49999999999999994  0.8330851666666667  1.0000
  N   N41       1.0  0.07740000000000001  0.3333333333333333  0.7235293333333334  1.0000
  N   N42       1.0  0.12259999999999999  0.3333333333333333  0.8068626666666665  1.0000
  N   N43       1.0  0.17739999999999997  0.49999999999999994  0.7235293333333334  1.0000
  N   N44       1.0  0.022600000000000002  0.49999999999999994  0.8068626666666665  1.0000
  O   O81       1.0  0.16108999999999998  0.3796823333333333  0.7365168333333333  1.0000
  O   O82       1.0  0.16108999999999998  0.6203176666666665  0.7365168333333333  1.0000
  O   O83       1.0  0.03891  0.6203176666666665  0.8198501666666667  1.0000
  O   O84       1.0  0.03891  0.3796823333333333  0.8198501666666667  1.0000
  O   O85       1.0  0.06109  0.546349  0.7365168333333333  1.0000
  O   O86       1.0  0.06109  0.45365099999999997  0.7365168333333333  1.0000
  O   O87       1.0  0.13891  0.45365099999999997  0.8198501666666667  1.0000
  O   O88       1.0  0.13891  0.546349  0.8198501666666667  1.0000
  Li  Li89      1.0  0.1318929  0.5552238333333332  0.9169259999999998  1.0000
  Li  Li90      1.0  0.1318929  0.44477616666666664  0.9169259999999998  1.0000
  Li  Li91      1.0  0.0681071  0.44477616666666664  0.8335926666666665  1.0000
  Li  Li92      1.0  0.0681071  0.5552238333333332  0.8335926666666665  1.0000
  Li  Li93      1.0  0.0318929  0.3885571666666666  0.9169259999999998  1.0000
  Li  Li94      1.0  0.0318929  0.6114428333333333  0.9169259999999998  1.0000
  Li  Li95      1.0  0.16810709999999998  0.6114428333333333  0.8335926666666665  1.0000
  Li  Li96      1.0  0.16810709999999998  0.3885571666666666  0.8335926666666665  1.0000
  P   P45       1.0  0.13075000000000003  0.3333333333333333  0.9164184999999998  1.0000
  P   P46       1.0  0.06924999999999999  0.3333333333333333  0.9997518333333333  1.0000
  P   P47       1.0  0.03075  0.49999999999999994  0.9164184999999998  1.0000
  P   P48       1.0  0.16924999999999998  0.49999999999999994  0.9997518333333333  1.0000
  N   N45       1.0  0.07740000000000001  0.3333333333333333  0.8901959999999999  1.0000
  N   N46       1.0  0.12259999999999999  0.3333333333333333  0.9735293333333331  1.0000
  N   N47       1.0  0.17739999999999997  0.49999999999999994  0.8901959999999999  1.0000
  N   N48       1.0  0.022600000000000002  0.49999999999999994  0.9735293333333331  1.0000
  O   O89       1.0  0.16108999999999998  0.3796823333333333  0.9031834999999999  1.0000
  O   O90       1.0  0.16108999999999998  0.6203176666666665  0.9031834999999999  1.0000
  O   O91       1.0  0.03891  0.6203176666666665  0.9865168333333332  1.0000
  O   O92       1.0  0.03891  0.3796823333333333  0.9865168333333332  1.0000
  O   O93       1.0  0.06109  0.546349  0.9031834999999999  1.0000
  O   O94       1.0  0.06109  0.45365099999999997  0.9031834999999999  1.0000
  O   O95       1.0  0.13891  0.45365099999999997  0.9865168333333332  1.0000
  O   O96       1.0  0.13891  0.546349  0.9865168333333332  1.0000
  Li  Li97      1.0  0.1318929  0.8885571666666665  0.08359266666666666  1.0000
  Li  Li98      1.0  0.1318929  0.7781094999999999  0.08359266666666666  1.0000
  Li  Li99      1.0  0.0681071  0.7781094999999999  0.0002593333333333333  1.0000
  Li  Li100     1.0  0.0681071  0.8885571666666665  0.0002593333333333333  1.0000
  Li  Li101     1.0  0.0318929  0.7218904999999999  0.08359266666666666  1.0000
  Li  Li102     1.0  0.0318929  0.9447761666666666  0.08359266666666666  1.0000
  Li  Li103     1.0  0.16810709999999998  0.9447761666666666  0.0002593333333333333  1.0000
  Li  Li104     1.0  0.16810709999999998  0.7218904999999999  0.0002593333333333333  1.0000
  P   P49       1.0  0.13075000000000003  0.6666666666666666  0.08308516666666665  1.0000
  P   P50       1.0  0.06924999999999999  0.6666666666666666  0.1664185  1.0000
  P   P51       1.0  0.03075  0.8333333333333331  0.08308516666666665  1.0000
  P   P52       1.0  0.16924999999999998  0.8333333333333331  0.1664185  1.0000
  N   N49       1.0  0.07740000000000001  0.6666666666666666  0.05686266666666666  1.0000
  N   N50       1.0  0.12259999999999999  0.6666666666666666  0.14019599999999996  1.0000
  N   N51       1.0  0.17739999999999997  0.8333333333333331  0.05686266666666666  1.0000
  N   N52       1.0  0.022600000000000002  0.8333333333333331  0.14019599999999996  1.0000
  O   O97       1.0  0.16108999999999998  0.7130156666666666  0.06985016666666664  1.0000
  O   O98       1.0  0.16108999999999998  0.9536509999999998  0.06985016666666664  1.0000
  O   O99       1.0  0.03891  0.9536509999999998  0.15318349999999997  1.0000
  O   O100      1.0  0.03891  0.7130156666666666  0.15318349999999997  1.0000
  O   O101      1.0  0.06109  0.8796823333333332  0.06985016666666664  1.0000
  O   O102      1.0  0.06109  0.7869843333333332  0.06985016666666664  1.0000
  O   O103      1.0  0.13891  0.7869843333333332  0.15318349999999997  1.0000
  O   O104      1.0  0.13891  0.8796823333333332  0.15318349999999997  1.0000
  Li  Li105     1.0  0.1318929  0.8885571666666665  0.2502593333333333  1.0000
  Li  Li106     1.0  0.1318929  0.7781094999999999  0.2502593333333333  1.0000
  Li  Li107     1.0  0.0681071  0.7781094999999999  0.166926  1.0000
  Li  Li108     1.0  0.0681071  0.8885571666666665  0.166926  1.0000
  Li  Li109     1.0  0.0318929  0.7218904999999999  0.2502593333333333  1.0000
  Li  Li110     1.0  0.0318929  0.9447761666666666  0.2502593333333333  1.0000
  Li  Li111     1.0  0.16810709999999998  0.9447761666666666  0.166926  1.0000
  Li  Li112     1.0  0.16810709999999998  0.7218904999999999  0.166926  1.0000
  P   P53       1.0  0.13075000000000003  0.6666666666666666  0.2497518333333333  1.0000
  P   P54       1.0  0.06924999999999999  0.6666666666666666  0.33308516666666665  1.0000
  P   P55       1.0  0.03075  0.8333333333333331  0.2497518333333333  1.0000
  P   P56       1.0  0.16924999999999998  0.8333333333333331  0.33308516666666665  1.0000
  N   N53       1.0  0.07740000000000001  0.6666666666666666  0.22352933333333333  1.0000
  N   N54       1.0  0.12259999999999999  0.6666666666666666  0.3068626666666666  1.0000
  N   N55       1.0  0.17739999999999997  0.8333333333333331  0.22352933333333333  1.0000
  N   N56       1.0  0.022600000000000002  0.8333333333333331  0.3068626666666666  1.0000
  O   O105      1.0  0.16108999999999998  0.7130156666666666  0.2365168333333333  1.0000
  O   O106      1.0  0.16108999999999998  0.9536509999999998  0.2365168333333333  1.0000
  O   O107      1.0  0.03891  0.9536509999999998  0.31985016666666666  1.0000
  O   O108      1.0  0.03891  0.7130156666666666  0.31985016666666666  1.0000
  O   O109      1.0  0.06109  0.8796823333333332  0.2365168333333333  1.0000
  O   O110      1.0  0.06109  0.7869843333333332  0.2365168333333333  1.0000
  O   O111      1.0  0.13891  0.7869843333333332  0.31985016666666666  1.0000
  O   O112      1.0  0.13891  0.8796823333333332  0.31985016666666666  1.0000
  Li  Li113     1.0  0.1318929  0.8885571666666665  0.41692599999999996  1.0000
  Li  Li114     1.0  0.1318929  0.7781094999999999  0.41692599999999996  1.0000
  Li  Li115     1.0  0.0681071  0.7781094999999999  0.3335926666666666  1.0000
  Li  Li116     1.0  0.0681071  0.8885571666666665  0.3335926666666666  1.0000
  Li  Li117     1.0  0.0318929  0.7218904999999999  0.41692599999999996  1.0000
  Li  Li118     1.0  0.0318929  0.9447761666666666  0.41692599999999996  1.0000
  Li  Li119     1.0  0.16810709999999998  0.9447761666666666  0.3335926666666666  1.0000
  Li  Li120     1.0  0.16810709999999998  0.7218904999999999  0.3335926666666666  1.0000
  P   P57       1.0  0.13075000000000003  0.6666666666666666  0.41641849999999997  1.0000
  P   P58       1.0  0.06924999999999999  0.6666666666666666  0.49975183333333323  1.0000
  P   P59       1.0  0.03075  0.8333333333333331  0.41641849999999997  1.0000
  P   P60       1.0  0.16924999999999998  0.8333333333333331  0.49975183333333323  1.0000
  N   N57       1.0  0.07740000000000001  0.6666666666666666  0.39019599999999993  1.0000
  N   N58       1.0  0.12259999999999999  0.6666666666666666  0.47352933333333325  1.0000
  N   N59       1.0  0.17739999999999997  0.8333333333333331  0.39019599999999993  1.0000
  N   N60       1.0  0.022600000000000002  0.8333333333333331  0.47352933333333325  1.0000
  O   O113      1.0  0.16108999999999998  0.7130156666666666  0.4031835  1.0000
  O   O114      1.0  0.16108999999999998  0.9536509999999998  0.4031835  1.0000
  O   O115      1.0  0.03891  0.9536509999999998  0.4865168333333333  1.0000
  O   O116      1.0  0.03891  0.7130156666666666  0.4865168333333333  1.0000
  O   O117      1.0  0.06109  0.8796823333333332  0.4031835  1.0000
  O   O118      1.0  0.06109  0.7869843333333332  0.4031835  1.0000
  O   O119      1.0  0.13891  0.7869843333333332  0.4865168333333333  1.0000
  O   O120      1.0  0.13891  0.8796823333333332  0.4865168333333333  1.0000
  Li  Li121     1.0  0.1318929  0.8885571666666665  0.5835926666666665  1.0000
  Li  Li122     1.0  0.1318929  0.7781094999999999  0.5835926666666665  1.0000
  Li  Li123     1.0  0.0681071  0.7781094999999999  0.5002593333333333  1.0000
  Li  Li124     1.0  0.0681071  0.8885571666666665  0.5002593333333333  1.0000
  Li  Li125     1.0  0.0318929  0.7218904999999999  0.5835926666666665  1.0000
  Li  Li126     1.0  0.0318929  0.9447761666666666  0.5835926666666665  1.0000
  Li  Li127     1.0  0.16810709999999998  0.9447761666666666  0.5002593333333333  1.0000
  Li  Li128     1.0  0.16810709999999998  0.7218904999999999  0.5002593333333333  1.0000
  P   P61       1.0  0.13075000000000003  0.6666666666666666  0.5830851666666667  1.0000
  P   P62       1.0  0.06924999999999999  0.6666666666666666  0.6664185  1.0000
  P   P63       1.0  0.03075  0.8333333333333331  0.5830851666666667  1.0000
  P   P64       1.0  0.16924999999999998  0.8333333333333331  0.6664185  1.0000
  N   N61       1.0  0.07740000000000001  0.6666666666666666  0.5568626666666666  1.0000
  N   N62       1.0  0.12259999999999999  0.6666666666666666  0.6401959999999999  1.0000
  N   N63       1.0  0.17739999999999997  0.8333333333333331  0.5568626666666666  1.0000
  N   N64       1.0  0.022600000000000002  0.8333333333333331  0.6401959999999999  1.0000
  O   O121      1.0  0.16108999999999998  0.7130156666666666  0.5698501666666667  1.0000
  O   O122      1.0  0.16108999999999998  0.9536509999999998  0.5698501666666667  1.0000
  O   O123      1.0  0.03891  0.9536509999999998  0.6531834999999999  1.0000
  O   O124      1.0  0.03891  0.7130156666666666  0.6531834999999999  1.0000
  O   O125      1.0  0.06109  0.8796823333333332  0.5698501666666667  1.0000
  O   O126      1.0  0.06109  0.7869843333333332  0.5698501666666667  1.0000
  O   O127      1.0  0.13891  0.7869843333333332  0.6531834999999999  1.0000
  O   O128      1.0  0.13891  0.8796823333333332  0.6531834999999999  1.0000
  Li  Li129     1.0  0.1318929  0.8885571666666665  0.7502593333333332  1.0000
  Li  Li130     1.0  0.1318929  0.7781094999999999  0.7502593333333332  1.0000
  Li  Li131     1.0  0.0681071  0.7781094999999999  0.666926  1.0000
  Li  Li132     1.0  0.0681071  0.8885571666666665  0.666926  1.0000
  Li  Li133     1.0  0.0318929  0.7218904999999999  0.7502593333333332  1.0000
  Li  Li134     1.0  0.0318929  0.9447761666666666  0.7502593333333332  1.0000
  Li  Li135     1.0  0.16810709999999998  0.9447761666666666  0.666926  1.0000
  Li  Li136     1.0  0.16810709999999998  0.7218904999999999  0.666926  1.0000
  P   P65       1.0  0.13075000000000003  0.6666666666666666  0.7497518333333333  1.0000
  P   P66       1.0  0.06924999999999999  0.6666666666666666  0.8330851666666667  1.0000
  P   P67       1.0  0.03075  0.8333333333333331  0.7497518333333333  1.0000
  P   P68       1.0  0.16924999999999998  0.8333333333333331  0.8330851666666667  1.0000
  N   N65       1.0  0.07740000000000001  0.6666666666666666  0.7235293333333334  1.0000
  N   N66       1.0  0.12259999999999999  0.6666666666666666  0.8068626666666665  1.0000
  N   N67       1.0  0.17739999999999997  0.8333333333333331  0.7235293333333334  1.0000
  N   N68       1.0  0.022600000000000002  0.8333333333333331  0.8068626666666665  1.0000
  O   O129      1.0  0.16108999999999998  0.7130156666666666  0.7365168333333333  1.0000
  O   O130      1.0  0.16108999999999998  0.9536509999999998  0.7365168333333333  1.0000
  O   O131      1.0  0.03891  0.9536509999999998  0.8198501666666667  1.0000
  O   O132      1.0  0.03891  0.7130156666666666  0.8198501666666667  1.0000
  O   O133      1.0  0.06109  0.8796823333333332  0.7365168333333333  1.0000
  O   O134      1.0  0.06109  0.7869843333333332  0.7365168333333333  1.0000
  O   O135      1.0  0.13891  0.7869843333333332  0.8198501666666667  1.0000
  O   O136      1.0  0.13891  0.8796823333333332  0.8198501666666667  1.0000
  Li  Li137     1.0  0.1318929  0.8885571666666665  0.9169259999999998  1.0000
  Li  Li138     1.0  0.1318929  0.7781094999999999  0.9169259999999998  1.0000
  Li  Li139     1.0  0.0681071  0.7781094999999999  0.8335926666666665  1.0000
  Li  Li140     1.0  0.0681071  0.8885571666666665  0.8335926666666665  1.0000
  Li  Li141     1.0  0.0318929  0.7218904999999999  0.9169259999999998  1.0000
  Li  Li142     1.0  0.0318929  0.9447761666666666  0.9169259999999998  1.0000
  Li  Li143     1.0  0.16810709999999998  0.9447761666666666  0.8335926666666665  1.0000
  Li  Li144     1.0  0.16810709999999998  0.7218904999999999  0.8335926666666665  1.0000
  P   P69       1.0  0.13075000000000003  0.6666666666666666  0.9164184999999998  1.0000
  P   P70       1.0  0.06924999999999999  0.6666666666666666  0.9997518333333333  1.0000
  P   P71       1.0  0.03075  0.8333333333333331  0.9164184999999998  1.0000
  P   P72       1.0  0.16924999999999998  0.8333333333333331  0.9997518333333333  1.0000
  N   N69       1.0  0.07740000000000001  0.6666666666666666  0.8901959999999999  1.0000
  N   N70       1.0  0.12259999999999999  0.6666666666666666  0.9735293333333331  1.0000
  N   N71       1.0  0.17739999999999997  0.8333333333333331  0.8901959999999999  1.0000
  N   N72       1.0  0.022600000000000002  0.8333333333333331  0.9735293333333331  1.0000
  O   O137      1.0  0.16108999999999998  0.7130156666666666  0.9031834999999999  1.0000
  O   O138      1.0  0.16108999999999998  0.9536509999999998  0.9031834999999999  1.0000
  O   O139      1.0  0.03891  0.9536509999999998  0.9865168333333332  1.0000
  O   O140      1.0  0.03891  0.7130156666666666  0.9865168333333332  1.0000
  O   O141      1.0  0.06109  0.8796823333333332  0.9031834999999999  1.0000
  O   O142      1.0  0.06109  0.7869843333333332  0.9031834999999999  1.0000
  O   O143      1.0  0.13891  0.7869843333333332  0.9865168333333332  1.0000
  O   O144      1.0  0.13891  0.8796823333333332  0.9865168333333332  1.0000
  Li  Li145     1.0  0.3318929  0.22189049999999996  0.08359266666666666  1.0000
  Li  Li146     1.0  0.3318929  0.11144283333333331  0.08359266666666666  1.0000
  Li  Li147     1.0  0.2681071  0.11144283333333331  0.0002593333333333333  1.0000
  Li  Li148     1.0  0.2681071  0.22189049999999996  0.0002593333333333333  1.0000
  Li  Li149     1.0  0.2318929  0.055223833333333326  0.08359266666666666  1.0000
  Li  Li150     1.0  0.2318929  0.2781095  0.08359266666666666  1.0000
  Li  Li151     1.0  0.36810709999999996  0.2781095  0.0002593333333333333  1.0000
  Li  Li152     1.0  0.36810709999999996  0.055223833333333326  0.0002593333333333333  1.0000
  P   P73       1.0  0.33075000000000004  0.0  0.08308516666666665  1.0000
  P   P74       1.0  0.26925  0.0  0.1664185  1.0000
  P   P75       1.0  0.23074999999999998  0.16666666666666666  0.08308516666666665  1.0000
  P   P76       1.0  0.36924999999999997  0.16666666666666666  0.1664185  1.0000
  N   N73       1.0  0.2774  0.0  0.05686266666666666  1.0000
  N   N74       1.0  0.3226  0.0  0.14019599999999996  1.0000
  N   N75       1.0  0.37739999999999996  0.16666666666666666  0.05686266666666666  1.0000
  N   N76       1.0  0.2226  0.16666666666666666  0.14019599999999996  1.0000
  O   O145      1.0  0.36109  0.046348999999999994  0.06985016666666664  1.0000
  O   O146      1.0  0.36109  0.2869843333333333  0.06985016666666664  1.0000
  O   O147      1.0  0.23890999999999998  0.2869843333333333  0.15318349999999997  1.0000
  O   O148      1.0  0.23890999999999998  0.046348999999999994  0.15318349999999997  1.0000
  O   O149      1.0  0.26109  0.21301566666666666  0.06985016666666664  1.0000
  O   O150      1.0  0.26109  0.12031766666666666  0.06985016666666664  1.0000
  O   O151      1.0  0.33891  0.12031766666666666  0.15318349999999997  1.0000
  O   O152      1.0  0.33891  0.21301566666666666  0.15318349999999997  1.0000
  Li  Li153     1.0  0.3318929  0.22189049999999996  0.2502593333333333  1.0000
  Li  Li154     1.0  0.3318929  0.11144283333333331  0.2502593333333333  1.0000
  Li  Li155     1.0  0.2681071  0.11144283333333331  0.166926  1.0000
  Li  Li156     1.0  0.2681071  0.22189049999999996  0.166926  1.0000
  Li  Li157     1.0  0.2318929  0.055223833333333326  0.2502593333333333  1.0000
  Li  Li158     1.0  0.2318929  0.2781095  0.2502593333333333  1.0000
  Li  Li159     1.0  0.36810709999999996  0.2781095  0.166926  1.0000
  Li  Li160     1.0  0.36810709999999996  0.055223833333333326  0.166926  1.0000
  P   P77       1.0  0.33075000000000004  0.0  0.2497518333333333  1.0000
  P   P78       1.0  0.26925  0.0  0.33308516666666665  1.0000
  P   P79       1.0  0.23074999999999998  0.16666666666666666  0.2497518333333333  1.0000
  P   P80       1.0  0.36924999999999997  0.16666666666666666  0.33308516666666665  1.0000
  N   N77       1.0  0.2774  0.0  0.22352933333333333  1.0000
  N   N78       1.0  0.3226  0.0  0.3068626666666666  1.0000
  N   N79       1.0  0.37739999999999996  0.16666666666666666  0.22352933333333333  1.0000
  N   N80       1.0  0.2226  0.16666666666666666  0.3068626666666666  1.0000
  O   O153      1.0  0.36109  0.046348999999999994  0.2365168333333333  1.0000
  O   O154      1.0  0.36109  0.2869843333333333  0.2365168333333333  1.0000
  O   O155      1.0  0.23890999999999998  0.2869843333333333  0.31985016666666666  1.0000
  O   O156      1.0  0.23890999999999998  0.046348999999999994  0.31985016666666666  1.0000
  O   O157      1.0  0.26109  0.21301566666666666  0.2365168333333333  1.0000
  O   O158      1.0  0.26109  0.12031766666666666  0.2365168333333333  1.0000
  O   O159      1.0  0.33891  0.12031766666666666  0.31985016666666666  1.0000
  O   O160      1.0  0.33891  0.21301566666666666  0.31985016666666666  1.0000
  Li  Li161     1.0  0.3318929  0.22189049999999996  0.41692599999999996  1.0000
  Li  Li162     1.0  0.3318929  0.11144283333333331  0.41692599999999996  1.0000
  Li  Li163     1.0  0.2681071  0.11144283333333331  0.3335926666666666  1.0000
  Li  Li164     1.0  0.2681071  0.22189049999999996  0.3335926666666666  1.0000
  Li  Li165     1.0  0.2318929  0.055223833333333326  0.41692599999999996  1.0000
  Li  Li166     1.0  0.2318929  0.2781095  0.41692599999999996  1.0000
  Li  Li167     1.0  0.36810709999999996  0.2781095  0.3335926666666666  1.0000
  Li  Li168     1.0  0.36810709999999996  0.055223833333333326  0.3335926666666666  1.0000
  P   P81       1.0  0.33075000000000004  0.0  0.41641849999999997  1.0000
  P   P82       1.0  0.26925  0.0  0.49975183333333323  1.0000
  P   P83       1.0  0.23074999999999998  0.16666666666666666  0.41641849999999997  1.0000
  P   P84       1.0  0.36924999999999997  0.16666666666666666  0.49975183333333323  1.0000
  N   N81       1.0  0.2774  0.0  0.39019599999999993  1.0000
  N   N82       1.0  0.3226  0.0  0.47352933333333325  1.0000
  N   N83       1.0  0.37739999999999996  0.16666666666666666  0.39019599999999993  1.0000
  N   N84       1.0  0.2226  0.16666666666666666  0.47352933333333325  1.0000
  O   O161      1.0  0.36109  0.046348999999999994  0.4031835  1.0000
  O   O162      1.0  0.36109  0.2869843333333333  0.4031835  1.0000
  O   O163      1.0  0.23890999999999998  0.2869843333333333  0.4865168333333333  1.0000
  O   O164      1.0  0.23890999999999998  0.046348999999999994  0.4865168333333333  1.0000
  O   O165      1.0  0.26109  0.21301566666666666  0.4031835  1.0000
  O   O166      1.0  0.26109  0.12031766666666666  0.4031835  1.0000
  O   O167      1.0  0.33891  0.12031766666666666  0.4865168333333333  1.0000
  O   O168      1.0  0.33891  0.21301566666666666  0.4865168333333333  1.0000
  Li  Li169     1.0  0.3318929  0.22189049999999996  0.5835926666666665  1.0000
  Li  Li170     1.0  0.3318929  0.11144283333333331  0.5835926666666665  1.0000
  Li  Li171     1.0  0.2681071  0.11144283333333331  0.5002593333333333  1.0000
  Li  Li172     1.0  0.2681071  0.22189049999999996  0.5002593333333333  1.0000
  Li  Li173     1.0  0.2318929  0.055223833333333326  0.5835926666666665  1.0000
  Li  Li174     1.0  0.2318929  0.2781095  0.5835926666666665  1.0000
  Li  Li175     1.0  0.36810709999999996  0.2781095  0.5002593333333333  1.0000
  Li  Li176     1.0  0.36810709999999996  0.055223833333333326  0.5002593333333333  1.0000
  P   P85       1.0  0.33075000000000004  0.0  0.5830851666666667  1.0000
  P   P86       1.0  0.26925  0.0  0.6664185  1.0000
  P   P87       1.0  0.23074999999999998  0.16666666666666666  0.5830851666666667  1.0000
  P   P88       1.0  0.36924999999999997  0.16666666666666666  0.6664185  1.0000
  N   N85       1.0  0.2774  0.0  0.5568626666666666  1.0000
  N   N86       1.0  0.3226  0.0  0.6401959999999999  1.0000
  N   N87       1.0  0.37739999999999996  0.16666666666666666  0.5568626666666666  1.0000
  N   N88       1.0  0.2226  0.16666666666666666  0.6401959999999999  1.0000
  O   O169      1.0  0.36109  0.046348999999999994  0.5698501666666667  1.0000
  O   O170      1.0  0.36109  0.2869843333333333  0.5698501666666667  1.0000
  O   O171      1.0  0.23890999999999998  0.2869843333333333  0.6531834999999999  1.0000
  O   O172      1.0  0.23890999999999998  0.046348999999999994  0.6531834999999999  1.0000
  O   O173      1.0  0.26109  0.21301566666666666  0.5698501666666667  1.0000
  O   O174      1.0  0.26109  0.12031766666666666  0.5698501666666667  1.0000
  O   O175      1.0  0.33891  0.12031766666666666  0.6531834999999999  1.0000
  O   O176      1.0  0.33891  0.21301566666666666  0.6531834999999999  1.0000
  Li  Li177     1.0  0.3318929  0.22189049999999996  0.7502593333333332  1.0000
  Li  Li178     1.0  0.3318929  0.11144283333333331  0.7502593333333332  1.0000
  Li  Li179     1.0  0.2681071  0.11144283333333331  0.666926  1.0000
  Li  Li180     1.0  0.2681071  0.22189049999999996  0.666926  1.0000
  Li  Li181     1.0  0.2318929  0.055223833333333326  0.7502593333333332  1.0000
  Li  Li182     1.0  0.2318929  0.2781095  0.7502593333333332  1.0000
  Li  Li183     1.0  0.36810709999999996  0.2781095  0.666926  1.0000
  Li  Li184     1.0  0.36810709999999996  0.055223833333333326  0.666926  1.0000
  P   P89       1.0  0.33075000000000004  0.0  0.7497518333333333  1.0000
  P   P90       1.0  0.26925  0.0  0.8330851666666667  1.0000
  P   P91       1.0  0.23074999999999998  0.16666666666666666  0.7497518333333333  1.0000
  P   P92       1.0  0.36924999999999997  0.16666666666666666  0.8330851666666667  1.0000
  N   N89       1.0  0.2774  0.0  0.7235293333333334  1.0000
  N   N90       1.0  0.3226  0.0  0.8068626666666665  1.0000
  N   N91       1.0  0.37739999999999996  0.16666666666666666  0.7235293333333334  1.0000
  N   N92       1.0  0.2226  0.16666666666666666  0.8068626666666665  1.0000
  O   O177      1.0  0.36109  0.046348999999999994  0.7365168333333333  1.0000
  O   O178      1.0  0.36109  0.2869843333333333  0.7365168333333333  1.0000
  O   O179      1.0  0.23890999999999998  0.2869843333333333  0.8198501666666667  1.0000
  O   O180      1.0  0.23890999999999998  0.046348999999999994  0.8198501666666667  1.0000
  O   O181      1.0  0.26109  0.21301566666666666  0.7365168333333333  1.0000
  O   O182      1.0  0.26109  0.12031766666666666  0.7365168333333333  1.0000
  O   O183      1.0  0.33891  0.12031766666666666  0.8198501666666667  1.0000
  O   O184      1.0  0.33891  0.21301566666666666  0.8198501666666667  1.0000
  Li  Li185     1.0  0.3318929  0.22189049999999996  0.9169259999999998  1.0000
  Li  Li186     1.0  0.3318929  0.11144283333333331  0.9169259999999998  1.0000
  Li  Li187     1.0  0.2681071  0.11144283333333331  0.8335926666666665  1.0000
  Li  Li188     1.0  0.2681071  0.22189049999999996  0.8335926666666665  1.0000
  Li  Li189     1.0  0.2318929  0.055223833333333326  0.9169259999999998  1.0000
  Li  Li190     1.0  0.2318929  0.2781095  0.9169259999999998  1.0000
  Li  Li191     1.0  0.36810709999999996  0.2781095  0.8335926666666665  1.0000
  Li  Li192     1.0  0.36810709999999996  0.055223833333333326  0.8335926666666665  1.0000
  P   P93       1.0  0.33075000000000004  0.0  0.9164184999999998  1.0000
  P   P94       1.0  0.26925  0.0  0.9997518333333333  1.0000
  P   P95       1.0  0.23074999999999998  0.16666666666666666  0.9164184999999998  1.0000
  P   P96       1.0  0.36924999999999997  0.16666666666666666  0.9997518333333333  1.0000
  N   N93       1.0  0.2774  0.0  0.8901959999999999  1.0000
  N   N94       1.0  0.3226  0.0  0.9735293333333331  1.0000
  N   N95       1.0  0.37739999999999996  0.16666666666666666  0.8901959999999999  1.0000
  N   N96       1.0  0.2226  0.16666666666666666  0.9735293333333331  1.0000
  O   O185      1.0  0.36109  0.046348999999999994  0.9031834999999999  1.0000
  O   O186      1.0  0.36109  0.2869843333333333  0.9031834999999999  1.0000
  O   O187      1.0  0.23890999999999998  0.2869843333333333  0.9865168333333332  1.0000
  O   O188      1.0  0.23890999999999998  0.046348999999999994  0.9865168333333332  1.0000
  O   O189      1.0  0.26109  0.21301566666666666  0.9031834999999999  1.0000
  O   O190      1.0  0.26109  0.12031766666666666  0.9031834999999999  1.0000
  O   O191      1.0  0.33891  0.12031766666666666  0.9865168333333332  1.0000
  O   O192      1.0  0.33891  0.21301566666666666  0.9865168333333332  1.0000
  Li  Li193     1.0  0.3318929  0.5552238333333332  0.08359266666666666  1.0000
  Li  Li194     1.0  0.3318929  0.44477616666666664  0.08359266666666666  1.0000
  Li  Li195     1.0  0.2681071  0.44477616666666664  0.0002593333333333333  1.0000
  Li  Li196     1.0  0.2681071  0.5552238333333332  0.0002593333333333333  1.0000
  Li  Li197     1.0  0.2318929  0.3885571666666666  0.08359266666666666  1.0000
  Li  Li198     1.0  0.2318929  0.6114428333333333  0.08359266666666666  1.0000
  Li  Li199     1.0  0.36810709999999996  0.6114428333333333  0.0002593333333333333  1.0000
  Li  Li200     1.0  0.36810709999999996  0.3885571666666666  0.0002593333333333333  1.0000
  P   P97       1.0  0.33075000000000004  0.3333333333333333  0.08308516666666665  1.0000
  P   P98       1.0  0.26925  0.3333333333333333  0.1664185  1.0000
  P   P99       1.0  0.23074999999999998  0.49999999999999994  0.08308516666666665  1.0000
  P   P100      1.0  0.36924999999999997  0.49999999999999994  0.1664185  1.0000
  N   N97       1.0  0.2774  0.3333333333333333  0.05686266666666666  1.0000
  N   N98       1.0  0.3226  0.3333333333333333  0.14019599999999996  1.0000
  N   N99       1.0  0.37739999999999996  0.49999999999999994  0.05686266666666666  1.0000
  N   N100      1.0  0.2226  0.49999999999999994  0.14019599999999996  1.0000
  O   O193      1.0  0.36109  0.3796823333333333  0.06985016666666664  1.0000
  O   O194      1.0  0.36109  0.6203176666666665  0.06985016666666664  1.0000
  O   O195      1.0  0.23890999999999998  0.6203176666666665  0.15318349999999997  1.0000
  O   O196      1.0  0.23890999999999998  0.3796823333333333  0.15318349999999997  1.0000
  O   O197      1.0  0.26109  0.546349  0.06985016666666664  1.0000
  O   O198      1.0  0.26109  0.45365099999999997  0.06985016666666664  1.0000
  O   O199      1.0  0.33891  0.45365099999999997  0.15318349999999997  1.0000
  O   O200      1.0  0.33891  0.546349  0.15318349999999997  1.0000
  Li  Li201     1.0  0.3318929  0.5552238333333332  0.2502593333333333  1.0000
  Li  Li202     1.0  0.3318929  0.44477616666666664  0.2502593333333333  1.0000
  Li  Li203     1.0  0.2681071  0.44477616666666664  0.166926  1.0000
  Li  Li204     1.0  0.2681071  0.5552238333333332  0.166926  1.0000
  Li  Li205     1.0  0.2318929  0.3885571666666666  0.2502593333333333  1.0000
  Li  Li206     1.0  0.2318929  0.6114428333333333  0.2502593333333333  1.0000
  Li  Li207     1.0  0.36810709999999996  0.6114428333333333  0.166926  1.0000
  Li  Li208     1.0  0.36810709999999996  0.3885571666666666  0.166926  1.0000
  P   P101      1.0  0.33075000000000004  0.3333333333333333  0.2497518333333333  1.0000
  P   P102      1.0  0.26925  0.3333333333333333  0.33308516666666665  1.0000
  P   P103      1.0  0.23074999999999998  0.49999999999999994  0.2497518333333333  1.0000
  P   P104      1.0  0.36924999999999997  0.49999999999999994  0.33308516666666665  1.0000
  N   N101      1.0  0.2774  0.3333333333333333  0.22352933333333333  1.0000
  N   N102      1.0  0.3226  0.3333333333333333  0.3068626666666666  1.0000
  N   N103      1.0  0.37739999999999996  0.49999999999999994  0.22352933333333333  1.0000
  N   N104      1.0  0.2226  0.49999999999999994  0.3068626666666666  1.0000
  O   O201      1.0  0.36109  0.3796823333333333  0.2365168333333333  1.0000
  O   O202      1.0  0.36109  0.6203176666666665  0.2365168333333333  1.0000
  O   O203      1.0  0.23890999999999998  0.6203176666666665  0.31985016666666666  1.0000
  O   O204      1.0  0.23890999999999998  0.3796823333333333  0.31985016666666666  1.0000
  O   O205      1.0  0.26109  0.546349  0.2365168333333333  1.0000
  O   O206      1.0  0.26109  0.45365099999999997  0.2365168333333333  1.0000
  O   O207      1.0  0.33891  0.45365099999999997  0.31985016666666666  1.0000
  O   O208      1.0  0.33891  0.546349  0.31985016666666666  1.0000
  Li  Li209     1.0  0.3318929  0.5552238333333332  0.41692599999999996  1.0000
  Li  Li210     1.0  0.3318929  0.44477616666666664  0.41692599999999996  1.0000
  Li  Li211     1.0  0.2681071  0.44477616666666664  0.3335926666666666  1.0000
  Li  Li212     1.0  0.2681071  0.5552238333333332  0.3335926666666666  1.0000
  Li  Li213     1.0  0.2318929  0.3885571666666666  0.41692599999999996  1.0000
  Li  Li214     1.0  0.2318929  0.6114428333333333  0.41692599999999996  1.0000
  Li  Li215     1.0  0.36810709999999996  0.6114428333333333  0.3335926666666666  1.0000
  Li  Li216     1.0  0.36810709999999996  0.3885571666666666  0.3335926666666666  1.0000
  P   P105      1.0  0.33075000000000004  0.3333333333333333  0.41641849999999997  1.0000
  P   P106      1.0  0.26925  0.3333333333333333  0.49975183333333323  1.0000
  P   P107      1.0  0.23074999999999998  0.49999999999999994  0.41641849999999997  1.0000
  P   P108      1.0  0.36924999999999997  0.49999999999999994  0.49975183333333323  1.0000
  N   N105      1.0  0.2774  0.3333333333333333  0.39019599999999993  1.0000
  N   N106      1.0  0.3226  0.3333333333333333  0.47352933333333325  1.0000
  N   N107      1.0  0.37739999999999996  0.49999999999999994  0.39019599999999993  1.0000
  N   N108      1.0  0.2226  0.49999999999999994  0.47352933333333325  1.0000
  O   O209      1.0  0.36109  0.3796823333333333  0.4031835  1.0000
  O   O210      1.0  0.36109  0.6203176666666665  0.4031835  1.0000
  O   O211      1.0  0.23890999999999998  0.6203176666666665  0.4865168333333333  1.0000
  O   O212      1.0  0.23890999999999998  0.3796823333333333  0.4865168333333333  1.0000
  O   O213      1.0  0.26109  0.546349  0.4031835  1.0000
  O   O214      1.0  0.26109  0.45365099999999997  0.4031835  1.0000
  O   O215      1.0  0.33891  0.45365099999999997  0.4865168333333333  1.0000
  O   O216      1.0  0.33891  0.546349  0.4865168333333333  1.0000
  Li  Li217     1.0  0.3318929  0.5552238333333332  0.5835926666666665  1.0000
  Li  Li218     1.0  0.3318929  0.44477616666666664  0.5835926666666665  1.0000
  Li  Li219     1.0  0.2681071  0.44477616666666664  0.5002593333333333  1.0000
  Li  Li220     1.0  0.2681071  0.5552238333333332  0.5002593333333333  1.0000
  Li  Li221     1.0  0.2318929  0.3885571666666666  0.5835926666666665  1.0000
  Li  Li222     1.0  0.2318929  0.6114428333333333  0.5835926666666665  1.0000
  Li  Li223     1.0  0.36810709999999996  0.6114428333333333  0.5002593333333333  1.0000
  Li  Li224     1.0  0.36810709999999996  0.3885571666666666  0.5002593333333333  1.0000
  P   P109      1.0  0.33075000000000004  0.3333333333333333  0.5830851666666667  1.0000
  P   P110      1.0  0.26925  0.3333333333333333  0.6664185  1.0000
  P   P111      1.0  0.23074999999999998  0.49999999999999994  0.5830851666666667  1.0000
  P   P112      1.0  0.36924999999999997  0.49999999999999994  0.6664185  1.0000
  N   N109      1.0  0.2774  0.3333333333333333  0.5568626666666666  1.0000
  N   N110      1.0  0.3226  0.3333333333333333  0.6401959999999999  1.0000
  N   N111      1.0  0.37739999999999996  0.49999999999999994  0.5568626666666666  1.0000
  N   N112      1.0  0.2226  0.49999999999999994  0.6401959999999999  1.0000
  O   O217      1.0  0.36109  0.3796823333333333  0.5698501666666667  1.0000
  O   O218      1.0  0.36109  0.6203176666666665  0.5698501666666667  1.0000
  O   O219      1.0  0.23890999999999998  0.6203176666666665  0.6531834999999999  1.0000
  O   O220      1.0  0.23890999999999998  0.3796823333333333  0.6531834999999999  1.0000
  O   O221      1.0  0.26109  0.546349  0.5698501666666667  1.0000
  O   O222      1.0  0.26109  0.45365099999999997  0.5698501666666667  1.0000
  O   O223      1.0  0.33891  0.45365099999999997  0.6531834999999999  1.0000
  O   O224      1.0  0.33891  0.546349  0.6531834999999999  1.0000
  Li  Li225     1.0  0.3318929  0.5552238333333332  0.7502593333333332  1.0000
  Li  Li226     1.0  0.3318929  0.44477616666666664  0.7502593333333332  1.0000
  Li  Li227     1.0  0.2681071  0.44477616666666664  0.666926  1.0000
  Li  Li228     1.0  0.2681071  0.5552238333333332  0.666926  1.0000
  Li  Li229     1.0  0.2318929  0.3885571666666666  0.7502593333333332  1.0000
  Li  Li230     1.0  0.2318929  0.6114428333333333  0.7502593333333332  1.0000
  Li  Li231     1.0  0.36810709999999996  0.6114428333333333  0.666926  1.0000
  Li  Li232     1.0  0.36810709999999996  0.3885571666666666  0.666926  1.0000
  P   P113      1.0  0.33075000000000004  0.3333333333333333  0.7497518333333333  1.0000
  P   P114      1.0  0.26925  0.3333333333333333  0.8330851666666667  1.0000
  P   P115      1.0  0.23074999999999998  0.49999999999999994  0.7497518333333333  1.0000
  P   P116      1.0  0.36924999999999997  0.49999999999999994  0.8330851666666667  1.0000
  N   N113      1.0  0.2774  0.3333333333333333  0.7235293333333334  1.0000
  N   N114      1.0  0.3226  0.3333333333333333  0.8068626666666665  1.0000
  N   N115      1.0  0.37739999999999996  0.49999999999999994  0.7235293333333334  1.0000
  N   N116      1.0  0.2226  0.49999999999999994  0.8068626666666665  1.0000
  O   O225      1.0  0.36109  0.3796823333333333  0.7365168333333333  1.0000
  O   O226      1.0  0.36109  0.6203176666666665  0.7365168333333333  1.0000
  O   O227      1.0  0.23890999999999998  0.6203176666666665  0.8198501666666667  1.0000
  O   O228      1.0  0.23890999999999998  0.3796823333333333  0.8198501666666667  1.0000
  O   O229      1.0  0.26109  0.546349  0.7365168333333333  1.0000
  O   O230      1.0  0.26109  0.45365099999999997  0.7365168333333333  1.0000
  O   O231      1.0  0.33891  0.45365099999999997  0.8198501666666667  1.0000
  O   O232      1.0  0.33891  0.546349  0.8198501666666667  1.0000
  Li  Li233     1.0  0.3318929  0.5552238333333332  0.9169259999999998  1.0000
  Li  Li234     1.0  0.3318929  0.44477616666666664  0.9169259999999998  1.0000
  Li  Li235     1.0  0.2681071  0.44477616666666664  0.8335926666666665  1.0000
  Li  Li236     1.0  0.2681071  0.5552238333333332  0.8335926666666665  1.0000
  Li  Li237     1.0  0.2318929  0.3885571666666666  0.9169259999999998  1.0000
  Li  Li238     1.0  0.2318929  0.6114428333333333  0.9169259999999998  1.0000
  Li  Li239     1.0  0.36810709999999996  0.6114428333333333  0.8335926666666665  1.0000
  Li  Li240     1.0  0.36810709999999996  0.3885571666666666  0.8335926666666665  1.0000
  P   P117      1.0  0.33075000000000004  0.3333333333333333  0.9164184999999998  1.0000
  P   P118      1.0  0.26925  0.3333333333333333  0.9997518333333333  1.0000
  P   P119      1.0  0.23074999999999998  0.49999999999999994  0.9164184999999998  1.0000
  P   P120      1.0  0.36924999999999997  0.49999999999999994  0.9997518333333333  1.0000
  N   N117      1.0  0.2774  0.3333333333333333  0.8901959999999999  1.0000
  N   N118      1.0  0.3226  0.3333333333333333  0.9735293333333331  1.0000
  N   N119      1.0  0.37739999999999996  0.49999999999999994  0.8901959999999999  1.0000
  N   N120      1.0  0.2226  0.49999999999999994  0.9735293333333331  1.0000
  O   O233      1.0  0.36109  0.3796823333333333  0.9031834999999999  1.0000
  O   O234      1.0  0.36109  0.6203176666666665  0.9031834999999999  1.0000
  O   O235      1.0  0.23890999999999998  0.6203176666666665  0.9865168333333332  1.0000
  O   O236      1.0  0.23890999999999998  0.3796823333333333  0.9865168333333332  1.0000
  O   O237      1.0  0.26109  0.546349  0.9031834999999999  1.0000
  O   O238      1.0  0.26109  0.45365099999999997  0.9031834999999999  1.0000
  O   O239      1.0  0.33891  0.45365099999999997  0.9865168333333332  1.0000
  O   O240      1.0  0.33891  0.546349  0.9865168333333332  1.0000
  Li  Li241     1.0  0.3318929  0.8885571666666665  0.08359266666666666  1.0000
  Li  Li242     1.0  0.3318929  0.7781094999999999  0.08359266666666666  1.0000
  Li  Li243     1.0  0.2681071  0.7781094999999999  0.0002593333333333333  1.0000
  Li  Li244     1.0  0.2681071  0.8885571666666665  0.0002593333333333333  1.0000
  Li  Li245     1.0  0.2318929  0.7218904999999999  0.08359266666666666  1.0000
  Li  Li246     1.0  0.2318929  0.9447761666666666  0.08359266666666666  1.0000
  Li  Li247     1.0  0.36810709999999996  0.9447761666666666  0.0002593333333333333  1.0000
  Li  Li248     1.0  0.36810709999999996  0.7218904999999999  0.0002593333333333333  1.0000
  P   P121      1.0  0.33075000000000004  0.6666666666666666  0.08308516666666665  1.0000
  P   P122      1.0  0.26925  0.6666666666666666  0.1664185  1.0000
  P   P123      1.0  0.23074999999999998  0.8333333333333331  0.08308516666666665  1.0000
  P   P124      1.0  0.36924999999999997  0.8333333333333331  0.1664185  1.0000
  N   N121      1.0  0.2774  0.6666666666666666  0.05686266666666666  1.0000
  N   N122      1.0  0.3226  0.6666666666666666  0.14019599999999996  1.0000
  N   N123      1.0  0.37739999999999996  0.8333333333333331  0.05686266666666666  1.0000
  N   N124      1.0  0.2226  0.8333333333333331  0.14019599999999996  1.0000
  O   O241      1.0  0.36109  0.7130156666666666  0.06985016666666664  1.0000
  O   O242      1.0  0.36109  0.9536509999999998  0.06985016666666664  1.0000
  O   O243      1.0  0.23890999999999998  0.9536509999999998  0.15318349999999997  1.0000
  O   O244      1.0  0.23890999999999998  0.7130156666666666  0.15318349999999997  1.0000
  O   O245      1.0  0.26109  0.8796823333333332  0.06985016666666664  1.0000
  O   O246      1.0  0.26109  0.7869843333333332  0.06985016666666664  1.0000
  O   O247      1.0  0.33891  0.7869843333333332  0.15318349999999997  1.0000
  O   O248      1.0  0.33891  0.8796823333333332  0.15318349999999997  1.0000
  Li  Li249     1.0  0.3318929  0.8885571666666665  0.2502593333333333  1.0000
  Li  Li250     1.0  0.3318929  0.7781094999999999  0.2502593333333333  1.0000
  Li  Li251     1.0  0.2681071  0.7781094999999999  0.166926  1.0000
  Li  Li252     1.0  0.2681071  0.8885571666666665  0.166926  1.0000
  Li  Li253     1.0  0.2318929  0.7218904999999999  0.2502593333333333  1.0000
  Li  Li254     1.0  0.2318929  0.9447761666666666  0.2502593333333333  1.0000
  Li  Li255     1.0  0.36810709999999996  0.9447761666666666  0.166926  1.0000
  Li  Li256     1.0  0.36810709999999996  0.7218904999999999  0.166926  1.0000
  P   P125      1.0  0.33075000000000004  0.6666666666666666  0.2497518333333333  1.0000
  P   P126      1.0  0.26925  0.6666666666666666  0.33308516666666665  1.0000
  P   P127      1.0  0.23074999999999998  0.8333333333333331  0.2497518333333333  1.0000
  P   P128      1.0  0.36924999999999997  0.8333333333333331  0.33308516666666665  1.0000
  N   N125      1.0  0.2774  0.6666666666666666  0.22352933333333333  1.0000
  N   N126      1.0  0.3226  0.6666666666666666  0.3068626666666666  1.0000
  N   N127      1.0  0.37739999999999996  0.8333333333333331  0.22352933333333333  1.0000
  N   N128      1.0  0.2226  0.8333333333333331  0.3068626666666666  1.0000
  O   O249      1.0  0.36109  0.7130156666666666  0.2365168333333333  1.0000
  O   O250      1.0  0.36109  0.9536509999999998  0.2365168333333333  1.0000
  O   O251      1.0  0.23890999999999998  0.9536509999999998  0.31985016666666666  1.0000
  O   O252      1.0  0.23890999999999998  0.7130156666666666  0.31985016666666666  1.0000
  O   O253      1.0  0.26109  0.8796823333333332  0.2365168333333333  1.0000
  O   O254      1.0  0.26109  0.7869843333333332  0.2365168333333333  1.0000
  O   O255      1.0  0.33891  0.7869843333333332  0.31985016666666666  1.0000
  O   O256      1.0  0.33891  0.8796823333333332  0.31985016666666666  1.0000
  Li  Li257     1.0  0.3318929  0.8885571666666665  0.41692599999999996  1.0000
  Li  Li258     1.0  0.3318929  0.7781094999999999  0.41692599999999996  1.0000
  Li  Li259     1.0  0.2681071  0.7781094999999999  0.3335926666666666  1.0000
  Li  Li260     1.0  0.2681071  0.8885571666666665  0.3335926666666666  1.0000
  Li  Li261     1.0  0.2318929  0.7218904999999999  0.41692599999999996  1.0000
  Li  Li262     1.0  0.2318929  0.9447761666666666  0.41692599999999996  1.0000
  Li  Li263     1.0  0.36810709999999996  0.9447761666666666  0.3335926666666666  1.0000
  Li  Li264     1.0  0.36810709999999996  0.7218904999999999  0.3335926666666666  1.0000
  P   P129      1.0  0.33075000000000004  0.6666666666666666  0.41641849999999997  1.0000
  P   P130      1.0  0.26925  0.6666666666666666  0.49975183333333323  1.0000
  P   P131      1.0  0.23074999999999998  0.8333333333333331  0.41641849999999997  1.0000
  P   P132      1.0  0.36924999999999997  0.8333333333333331  0.49975183333333323  1.0000
  N   N129      1.0  0.2774  0.6666666666666666  0.39019599999999993  1.0000
  N   N130      1.0  0.3226  0.6666666666666666  0.47352933333333325  1.0000
  N   N131      1.0  0.37739999999999996  0.8333333333333331  0.39019599999999993  1.0000
  N   N132      1.0  0.2226  0.8333333333333331  0.47352933333333325  1.0000
  O   O257      1.0  0.36109  0.7130156666666666  0.4031835  1.0000
  O   O258      1.0  0.36109  0.9536509999999998  0.4031835  1.0000
  O   O259      1.0  0.23890999999999998  0.9536509999999998  0.4865168333333333  1.0000
  O   O260      1.0  0.23890999999999998  0.7130156666666666  0.4865168333333333  1.0000
  O   O261      1.0  0.26109  0.8796823333333332  0.4031835  1.0000
  O   O262      1.0  0.26109  0.7869843333333332  0.4031835  1.0000
  O   O263      1.0  0.33891  0.7869843333333332  0.4865168333333333  1.0000
  O   O264      1.0  0.33891  0.8796823333333332  0.4865168333333333  1.0000
  Li  Li265     1.0  0.3318929  0.8885571666666665  0.5835926666666665  1.0000
  Li  Li266     1.0  0.3318929  0.7781094999999999  0.5835926666666665  1.0000
  Li  Li267     1.0  0.2681071  0.7781094999999999  0.5002593333333333  1.0000
  Li  Li268     1.0  0.2681071  0.8885571666666665  0.5002593333333333  1.0000
  Li  Li269     1.0  0.2318929  0.7218904999999999  0.5835926666666665  1.0000
  Li  Li270     1.0  0.2318929  0.9447761666666666  0.5835926666666665  1.0000
  Li  Li271     1.0  0.36810709999999996  0.9447761666666666  0.5002593333333333  1.0000
  Li  Li272     1.0  0.36810709999999996  0.7218904999999999  0.5002593333333333  1.0000
  P   P133      1.0  0.33075000000000004  0.6666666666666666  0.5830851666666667  1.0000
  P   P134      1.0  0.26925  0.6666666666666666  0.6664185  1.0000
  P   P135      1.0  0.23074999999999998  0.8333333333333331  0.5830851666666667  1.0000
  P   P136      1.0  0.36924999999999997  0.8333333333333331  0.6664185  1.0000
  N   N133      1.0  0.2774  0.6666666666666666  0.5568626666666666  1.0000
  N   N134      1.0  0.3226  0.6666666666666666  0.6401959999999999  1.0000
  N   N135      1.0  0.37739999999999996  0.8333333333333331  0.5568626666666666  1.0000
  N   N136      1.0  0.2226  0.8333333333333331  0.6401959999999999  1.0000
  O   O265      1.0  0.36109  0.7130156666666666  0.5698501666666667  1.0000
  O   O266      1.0  0.36109  0.9536509999999998  0.5698501666666667  1.0000
  O   O267      1.0  0.23890999999999998  0.9536509999999998  0.6531834999999999  1.0000
  O   O268      1.0  0.23890999999999998  0.7130156666666666  0.6531834999999999  1.0000
  O   O269      1.0  0.26109  0.8796823333333332  0.5698501666666667  1.0000
  O   O270      1.0  0.26109  0.7869843333333332  0.5698501666666667  1.0000
  O   O271      1.0  0.33891  0.7869843333333332  0.6531834999999999  1.0000
  O   O272      1.0  0.33891  0.8796823333333332  0.6531834999999999  1.0000
  Li  Li273     1.0  0.3318929  0.8885571666666665  0.7502593333333332  1.0000
  Li  Li274     1.0  0.3318929  0.7781094999999999  0.7502593333333332  1.0000
  Li  Li275     1.0  0.2681071  0.7781094999999999  0.666926  1.0000
  Li  Li276     1.0  0.2681071  0.8885571666666665  0.666926  1.0000
  Li  Li277     1.0  0.2318929  0.7218904999999999  0.7502593333333332  1.0000
  Li  Li278     1.0  0.2318929  0.9447761666666666  0.7502593333333332  1.0000
  Li  Li279     1.0  0.36810709999999996  0.9447761666666666  0.666926  1.0000
  Li  Li280     1.0  0.36810709999999996  0.7218904999999999  0.666926  1.0000
  P   P137      1.0  0.33075000000000004  0.6666666666666666  0.7497518333333333  1.0000
  P   P138      1.0  0.26925  0.6666666666666666  0.8330851666666667  1.0000
  P   P139      1.0  0.23074999999999998  0.8333333333333331  0.7497518333333333  1.0000
  P   P140      1.0  0.36924999999999997  0.8333333333333331  0.8330851666666667  1.0000
  N   N137      1.0  0.2774  0.6666666666666666  0.7235293333333334  1.0000
  N   N138      1.0  0.3226  0.6666666666666666  0.8068626666666665  1.0000
  N   N139      1.0  0.37739999999999996  0.8333333333333331  0.7235293333333334  1.0000
  N   N140      1.0  0.2226  0.8333333333333331  0.8068626666666665  1.0000
  O   O273      1.0  0.36109  0.7130156666666666  0.7365168333333333  1.0000
  O   O274      1.0  0.36109  0.9536509999999998  0.7365168333333333  1.0000
  O   O275      1.0  0.23890999999999998  0.9536509999999998  0.8198501666666667  1.0000
  O   O276      1.0  0.23890999999999998  0.7130156666666666  0.8198501666666667  1.0000
  O   O277      1.0  0.26109  0.8796823333333332  0.7365168333333333  1.0000
  O   O278      1.0  0.26109  0.7869843333333332  0.7365168333333333  1.0000
  O   O279      1.0  0.33891  0.7869843333333332  0.8198501666666667  1.0000
  O   O280      1.0  0.33891  0.8796823333333332  0.8198501666666667  1.0000
  Li  Li281     1.0  0.3318929  0.8885571666666665  0.9169259999999998  1.0000
  Li  Li282     1.0  0.3318929  0.7781094999999999  0.9169259999999998  1.0000
  Li  Li283     1.0  0.2681071  0.7781094999999999  0.8335926666666665  1.0000
  Li  Li284     1.0  0.2681071  0.8885571666666665  0.8335926666666665  1.0000
  Li  Li285     1.0  0.2318929  0.7218904999999999  0.9169259999999998  1.0000
  Li  Li286     1.0  0.2318929  0.9447761666666666  0.9169259999999998  1.0000
  Li  Li287     1.0  0.36810709999999996  0.9447761666666666  0.8335926666666665  1.0000
  Li  Li288     1.0  0.36810709999999996  0.7218904999999999  0.8335926666666665  1.0000
  P   P141      1.0  0.33075000000000004  0.6666666666666666  0.9164184999999998  1.0000
  P   P142      1.0  0.26925  0.6666666666666666  0.9997518333333333  1.0000
  P   P143      1.0  0.23074999999999998  0.8333333333333331  0.9164184999999998  1.0000
  P   P144      1.0  0.36924999999999997  0.8333333333333331  0.9997518333333333  1.0000
  N   N141      1.0  0.2774  0.6666666666666666  0.8901959999999999  1.0000
  N   N142      1.0  0.3226  0.6666666666666666  0.9735293333333331  1.0000
  N   N143      1.0  0.37739999999999996  0.8333333333333331  0.8901959999999999  1.0000
  N   N144      1.0  0.2226  0.8333333333333331  0.9735293333333331  1.0000
  O   O281      1.0  0.36109  0.7130156666666666  0.9031834999999999  1.0000
  O   O282      1.0  0.36109  0.9536509999999998  0.9031834999999999  1.0000
  O   O283      1.0  0.23890999999999998  0.9536509999999998  0.9865168333333332  1.0000
  O   O284      1.0  0.23890999999999998  0.7130156666666666  0.9865168333333332  1.0000
  O   O285      1.0  0.26109  0.8796823333333332  0.9031834999999999  1.0000
  O   O286      1.0  0.26109  0.7869843333333332  0.9031834999999999  1.0000
  O   O287      1.0  0.33891  0.7869843333333332  0.9865168333333332  1.0000
  O   O288      1.0  0.33891  0.8796823333333332  0.9865168333333332  1.0000
  Li  Li289     1.0  0.5318929  0.22189049999999996  0.08359266666666666  1.0000
  Li  Li290     1.0  0.5318929  0.11144283333333331  0.08359266666666666  1.0000
  Li  Li291     1.0  0.4681071  0.11144283333333331  0.0002593333333333333  1.0000
  Li  Li292     1.0  0.4681071  0.22189049999999996  0.0002593333333333333  1.0000
  Li  Li293     1.0  0.4318929  0.055223833333333326  0.08359266666666666  1.0000
  Li  Li294     1.0  0.4318929  0.2781095  0.08359266666666666  1.0000
  Li  Li295     1.0  0.5681071  0.2781095  0.0002593333333333333  1.0000
  Li  Li296     1.0  0.5681071  0.055223833333333326  0.0002593333333333333  1.0000
  P   P145      1.0  0.53075  0.0  0.08308516666666665  1.0000
  P   P146      1.0  0.46925  0.0  0.1664185  1.0000
  P   P147      1.0  0.43074999999999997  0.16666666666666666  0.08308516666666665  1.0000
  P   P148      1.0  0.5692499999999999  0.16666666666666666  0.1664185  1.0000
  N   N145      1.0  0.4774  0.0  0.05686266666666666  1.0000
  N   N146      1.0  0.5226  0.0  0.14019599999999996  1.0000
  N   N147      1.0  0.5774  0.16666666666666666  0.05686266666666666  1.0000
  N   N148      1.0  0.4226  0.16666666666666666  0.14019599999999996  1.0000
  O   O289      1.0  0.56109  0.046348999999999994  0.06985016666666664  1.0000
  O   O290      1.0  0.56109  0.2869843333333333  0.06985016666666664  1.0000
  O   O291      1.0  0.43890999999999997  0.2869843333333333  0.15318349999999997  1.0000
  O   O292      1.0  0.43890999999999997  0.046348999999999994  0.15318349999999997  1.0000
  O   O293      1.0  0.46109  0.21301566666666666  0.06985016666666664  1.0000
  O   O294      1.0  0.46109  0.12031766666666666  0.06985016666666664  1.0000
  O   O295      1.0  0.53891  0.12031766666666666  0.15318349999999997  1.0000
  O   O296      1.0  0.53891  0.21301566666666666  0.15318349999999997  1.0000
  Li  Li297     1.0  0.5318929  0.22189049999999996  0.2502593333333333  1.0000
  Li  Li298     1.0  0.5318929  0.11144283333333331  0.2502593333333333  1.0000
  Li  Li299     1.0  0.4681071  0.11144283333333331  0.166926  1.0000
  Li  Li300     1.0  0.4681071  0.22189049999999996  0.166926  1.0000
  Li  Li301     1.0  0.4318929  0.055223833333333326  0.2502593333333333  1.0000
  Li  Li302     1.0  0.4318929  0.2781095  0.2502593333333333  1.0000
  Li  Li303     1.0  0.5681071  0.2781095  0.166926  1.0000
  Li  Li304     1.0  0.5681071  0.055223833333333326  0.166926  1.0000
  P   P149      1.0  0.53075  0.0  0.2497518333333333  1.0000
  P   P150      1.0  0.46925  0.0  0.33308516666666665  1.0000
  P   P151      1.0  0.43074999999999997  0.16666666666666666  0.2497518333333333  1.0000
  P   P152      1.0  0.5692499999999999  0.16666666666666666  0.33308516666666665  1.0000
  N   N149      1.0  0.4774  0.0  0.22352933333333333  1.0000
  N   N150      1.0  0.5226  0.0  0.3068626666666666  1.0000
  N   N151      1.0  0.5774  0.16666666666666666  0.22352933333333333  1.0000
  N   N152      1.0  0.4226  0.16666666666666666  0.3068626666666666  1.0000
  O   O297      1.0  0.56109  0.046348999999999994  0.2365168333333333  1.0000
  O   O298      1.0  0.56109  0.2869843333333333  0.2365168333333333  1.0000
  O   O299      1.0  0.43890999999999997  0.2869843333333333  0.31985016666666666  1.0000
  O   O300      1.0  0.43890999999999997  0.046348999999999994  0.31985016666666666  1.0000
  O   O301      1.0  0.46109  0.21301566666666666  0.2365168333333333  1.0000
  O   O302      1.0  0.46109  0.12031766666666666  0.2365168333333333  1.0000
  O   O303      1.0  0.53891  0.12031766666666666  0.31985016666666666  1.0000
  O   O304      1.0  0.53891  0.21301566666666666  0.31985016666666666  1.0000
  Li  Li305     1.0  0.5318929  0.22189049999999996  0.41692599999999996  1.0000
  Li  Li306     1.0  0.5318929  0.11144283333333331  0.41692599999999996  1.0000
  Li  Li307     1.0  0.4681071  0.11144283333333331  0.3335926666666666  1.0000
  Li  Li308     1.0  0.4681071  0.22189049999999996  0.3335926666666666  1.0000
  Li  Li309     1.0  0.4318929  0.055223833333333326  0.41692599999999996  1.0000
  Li  Li310     1.0  0.4318929  0.2781095  0.41692599999999996  1.0000
  Li  Li311     1.0  0.5681071  0.2781095  0.3335926666666666  1.0000
  Li  Li312     1.0  0.5681071  0.055223833333333326  0.3335926666666666  1.0000
  P   P153      1.0  0.53075  0.0  0.41641849999999997  1.0000
  P   P154      1.0  0.46925  0.0  0.49975183333333323  1.0000
  P   P155      1.0  0.43074999999999997  0.16666666666666666  0.41641849999999997  1.0000
  P   P156      1.0  0.5692499999999999  0.16666666666666666  0.49975183333333323  1.0000
  N   N153      1.0  0.4774  0.0  0.39019599999999993  1.0000
  N   N154      1.0  0.5226  0.0  0.47352933333333325  1.0000
  N   N155      1.0  0.5774  0.16666666666666666  0.39019599999999993  1.0000
  N   N156      1.0  0.4226  0.16666666666666666  0.47352933333333325  1.0000
  O   O305      1.0  0.56109  0.046348999999999994  0.4031835  1.0000
  O   O306      1.0  0.56109  0.2869843333333333  0.4031835  1.0000
  O   O307      1.0  0.43890999999999997  0.2869843333333333  0.4865168333333333  1.0000
  O   O308      1.0  0.43890999999999997  0.046348999999999994  0.4865168333333333  1.0000
  O   O309      1.0  0.46109  0.21301566666666666  0.4031835  1.0000
  O   O310      1.0  0.46109  0.12031766666666666  0.4031835  1.0000
  O   O311      1.0  0.53891  0.12031766666666666  0.4865168333333333  1.0000
  O   O312      1.0  0.53891  0.21301566666666666  0.4865168333333333  1.0000
  Li  Li313     1.0  0.5318929  0.22189049999999996  0.5835926666666665  1.0000
  Li  Li314     1.0  0.5318929  0.11144283333333331  0.5835926666666665  1.0000
  Li  Li315     1.0  0.4681071  0.11144283333333331  0.5002593333333333  1.0000
  Li  Li316     1.0  0.4681071  0.22189049999999996  0.5002593333333333  1.0000
  Li  Li317     1.0  0.4318929  0.055223833333333326  0.5835926666666665  1.0000
  Li  Li318     1.0  0.4318929  0.2781095  0.5835926666666665  1.0000
  Li  Li319     1.0  0.5681071  0.2781095  0.5002593333333333  1.0000
  Li  Li320     1.0  0.5681071  0.055223833333333326  0.5002593333333333  1.0000
  P   P157      1.0  0.53075  0.0  0.5830851666666667  1.0000
  P   P158      1.0  0.46925  0.0  0.6664185  1.0000
  P   P159      1.0  0.43074999999999997  0.16666666666666666  0.5830851666666667  1.0000
  P   P160      1.0  0.5692499999999999  0.16666666666666666  0.6664185  1.0000
  N   N157      1.0  0.4774  0.0  0.5568626666666666  1.0000
  N   N158      1.0  0.5226  0.0  0.6401959999999999  1.0000
  N   N159      1.0  0.5774  0.16666666666666666  0.5568626666666666  1.0000
  N   N160      1.0  0.4226  0.16666666666666666  0.6401959999999999  1.0000
  O   O313      1.0  0.56109  0.046348999999999994  0.5698501666666667  1.0000
  O   O314      1.0  0.56109  0.2869843333333333  0.5698501666666667  1.0000
  O   O315      1.0  0.43890999999999997  0.2869843333333333  0.6531834999999999  1.0000
  O   O316      1.0  0.43890999999999997  0.046348999999999994  0.6531834999999999  1.0000
  O   O317      1.0  0.46109  0.21301566666666666  0.5698501666666667  1.0000
  O   O318      1.0  0.46109  0.12031766666666666  0.5698501666666667  1.0000
  O   O319      1.0  0.53891  0.12031766666666666  0.6531834999999999  1.0000
  O   O320      1.0  0.53891  0.21301566666666666  0.6531834999999999  1.0000
  Li  Li321     1.0  0.5318929  0.22189049999999996  0.7502593333333332  1.0000
  Li  Li322     1.0  0.5318929  0.11144283333333331  0.7502593333333332  1.0000
  Li  Li323     1.0  0.4681071  0.11144283333333331  0.666926  1.0000
  Li  Li324     1.0  0.4681071  0.22189049999999996  0.666926  1.0000
  Li  Li325     1.0  0.4318929  0.055223833333333326  0.7502593333333332  1.0000
  Li  Li326     1.0  0.4318929  0.2781095  0.7502593333333332  1.0000
  Li  Li327     1.0  0.5681071  0.2781095  0.666926  1.0000
  Li  Li328     1.0  0.5681071  0.055223833333333326  0.666926  1.0000
  P   P161      1.0  0.53075  0.0  0.7497518333333333  1.0000
  P   P162      1.0  0.46925  0.0  0.8330851666666667  1.0000
  P   P163      1.0  0.43074999999999997  0.16666666666666666  0.7497518333333333  1.0000
  P   P164      1.0  0.5692499999999999  0.16666666666666666  0.8330851666666667  1.0000
  N   N161      1.0  0.4774  0.0  0.7235293333333334  1.0000
  N   N162      1.0  0.5226  0.0  0.8068626666666665  1.0000
  N   N163      1.0  0.5774  0.16666666666666666  0.7235293333333334  1.0000
  N   N164      1.0  0.4226  0.16666666666666666  0.8068626666666665  1.0000
  O   O321      1.0  0.56109  0.046348999999999994  0.7365168333333333  1.0000
  O   O322      1.0  0.56109  0.2869843333333333  0.7365168333333333  1.0000
  O   O323      1.0  0.43890999999999997  0.2869843333333333  0.8198501666666667  1.0000
  O   O324      1.0  0.43890999999999997  0.046348999999999994  0.8198501666666667  1.0000
  O   O325      1.0  0.46109  0.21301566666666666  0.7365168333333333  1.0000
  O   O326      1.0  0.46109  0.12031766666666666  0.7365168333333333  1.0000
  O   O327      1.0  0.53891  0.12031766666666666  0.8198501666666667  1.0000
  O   O328      1.0  0.53891  0.21301566666666666  0.8198501666666667  1.0000
  Li  Li329     1.0  0.5318929  0.22189049999999996  0.9169259999999998  1.0000
  Li  Li330     1.0  0.5318929  0.11144283333333331  0.9169259999999998  1.0000
  Li  Li331     1.0  0.4681071  0.11144283333333331  0.8335926666666665  1.0000
  Li  Li332     1.0  0.4681071  0.22189049999999996  0.8335926666666665  1.0000
  Li  Li333     1.0  0.4318929  0.055223833333333326  0.9169259999999998  1.0000
  Li  Li334     1.0  0.4318929  0.2781095  0.9169259999999998  1.0000
  Li  Li335     1.0  0.5681071  0.2781095  0.8335926666666665  1.0000
  Li  Li336     1.0  0.5681071  0.055223833333333326  0.8335926666666665  1.0000
  P   P165      1.0  0.53075  0.0  0.9164184999999998  1.0000
  P   P166      1.0  0.46925  0.0  0.9997518333333333  1.0000
  P   P167      1.0  0.43074999999999997  0.16666666666666666  0.9164184999999998  1.0000
  P   P168      1.0  0.5692499999999999  0.16666666666666666  0.9997518333333333  1.0000
  N   N165      1.0  0.4774  0.0  0.8901959999999999  1.0000
  N   N166      1.0  0.5226  0.0  0.9735293333333331  1.0000
  N   N167      1.0  0.5774  0.16666666666666666  0.8901959999999999  1.0000
  N   N168      1.0  0.4226  0.16666666666666666  0.9735293333333331  1.0000
  O   O329      1.0  0.56109  0.046348999999999994  0.9031834999999999  1.0000
  O   O330      1.0  0.56109  0.2869843333333333  0.9031834999999999  1.0000
  O   O331      1.0  0.43890999999999997  0.2869843333333333  0.9865168333333332  1.0000
  O   O332      1.0  0.43890999999999997  0.046348999999999994  0.9865168333333332  1.0000
  O   O333      1.0  0.46109  0.21301566666666666  0.9031834999999999  1.0000
  O   O334      1.0  0.46109  0.12031766666666666  0.9031834999999999  1.0000
  O   O335      1.0  0.53891  0.12031766666666666  0.9865168333333332  1.0000
  O   O336      1.0  0.53891  0.21301566666666666  0.9865168333333332  1.0000
  Li  Li337     1.0  0.5318929  0.5552238333333332  0.08359266666666666  1.0000
  Li  Li338     1.0  0.5318929  0.44477616666666664  0.08359266666666666  1.0000
  Li  Li339     1.0  0.4681071  0.44477616666666664  0.0002593333333333333  1.0000
  Li  Li340     1.0  0.4681071  0.5552238333333332  0.0002593333333333333  1.0000
  Li  Li341     1.0  0.4318929  0.3885571666666666  0.08359266666666666  1.0000
  Li  Li342     1.0  0.4318929  0.6114428333333333  0.08359266666666666  1.0000
  Li  Li343     1.0  0.5681071  0.6114428333333333  0.0002593333333333333  1.0000
  Li  Li344     1.0  0.5681071  0.3885571666666666  0.0002593333333333333  1.0000
  P   P169      1.0  0.53075  0.3333333333333333  0.08308516666666665  1.0000
  P   P170      1.0  0.46925  0.3333333333333333  0.1664185  1.0000
  P   P171      1.0  0.43074999999999997  0.49999999999999994  0.08308516666666665  1.0000
  P   P172      1.0  0.5692499999999999  0.49999999999999994  0.1664185  1.0000
  N   N169      1.0  0.4774  0.3333333333333333  0.05686266666666666  1.0000
  N   N170      1.0  0.5226  0.3333333333333333  0.14019599999999996  1.0000
  N   N171      1.0  0.5774  0.49999999999999994  0.05686266666666666  1.0000
  N   N172      1.0  0.4226  0.49999999999999994  0.14019599999999996  1.0000
  O   O337      1.0  0.56109  0.3796823333333333  0.06985016666666664  1.0000
  O   O338      1.0  0.56109  0.6203176666666665  0.06985016666666664  1.0000
  O   O339      1.0  0.43890999999999997  0.6203176666666665  0.15318349999999997  1.0000
  O   O340      1.0  0.43890999999999997  0.3796823333333333  0.15318349999999997  1.0000
  O   O341      1.0  0.46109  0.546349  0.06985016666666664  1.0000
  O   O342      1.0  0.46109  0.45365099999999997  0.06985016666666664  1.0000
  O   O343      1.0  0.53891  0.45365099999999997  0.15318349999999997  1.0000
  O   O344      1.0  0.53891  0.546349  0.15318349999999997  1.0000
  Li  Li345     1.0  0.5318929  0.5552238333333332  0.2502593333333333  1.0000
  Li  Li346     1.0  0.5318929  0.44477616666666664  0.2502593333333333  1.0000
  Li  Li347     1.0  0.4681071  0.44477616666666664  0.166926  1.0000
  Li  Li348     1.0  0.4681071  0.5552238333333332  0.166926  1.0000
  Li  Li349     1.0  0.4318929  0.3885571666666666  0.2502593333333333  1.0000
  Li  Li350     1.0  0.4318929  0.6114428333333333  0.2502593333333333  1.0000
  Li  Li351     1.0  0.5681071  0.6114428333333333  0.166926  1.0000
  Li  Li352     1.0  0.5681071  0.3885571666666666  0.166926  1.0000
  P   P173      1.0  0.53075  0.3333333333333333  0.2497518333333333  1.0000
  P   P174      1.0  0.46925  0.3333333333333333  0.33308516666666665  1.0000
  P   P175      1.0  0.43074999999999997  0.49999999999999994  0.2497518333333333  1.0000
  P   P176      1.0  0.5692499999999999  0.49999999999999994  0.33308516666666665  1.0000
  N   N173      1.0  0.4774  0.3333333333333333  0.22352933333333333  1.0000
  N   N174      1.0  0.5226  0.3333333333333333  0.3068626666666666  1.0000
  N   N175      1.0  0.5774  0.49999999999999994  0.22352933333333333  1.0000
  N   N176      1.0  0.4226  0.49999999999999994  0.3068626666666666  1.0000
  O   O345      1.0  0.56109  0.3796823333333333  0.2365168333333333  1.0000
  O   O346      1.0  0.56109  0.6203176666666665  0.2365168333333333  1.0000
  O   O347      1.0  0.43890999999999997  0.6203176666666665  0.31985016666666666  1.0000
  O   O348      1.0  0.43890999999999997  0.3796823333333333  0.31985016666666666  1.0000
  O   O349      1.0  0.46109  0.546349  0.2365168333333333  1.0000
  O   O350      1.0  0.46109  0.45365099999999997  0.2365168333333333  1.0000
  O   O351      1.0  0.53891  0.45365099999999997  0.31985016666666666  1.0000
  O   O352      1.0  0.53891  0.546349  0.31985016666666666  1.0000
  Li  Li353     1.0  0.5318929  0.5552238333333332  0.41692599999999996  1.0000
  Li  Li354     1.0  0.5318929  0.44477616666666664  0.41692599999999996  1.0000
  Li  Li355     1.0  0.4681071  0.44477616666666664  0.3335926666666666  1.0000
  Li  Li356     1.0  0.4681071  0.5552238333333332  0.3335926666666666  1.0000
  Li  Li357     1.0  0.4318929  0.3885571666666666  0.41692599999999996  1.0000
  Li  Li358     1.0  0.4318929  0.6114428333333333  0.41692599999999996  1.0000
  Li  Li359     1.0  0.5681071  0.6114428333333333  0.3335926666666666  1.0000
  Li  Li360     1.0  0.5681071  0.3885571666666666  0.3335926666666666  1.0000
  P   P177      1.0  0.53075  0.3333333333333333  0.41641849999999997  1.0000
  P   P178      1.0  0.46925  0.3333333333333333  0.49975183333333323  1.0000
  P   P179      1.0  0.43074999999999997  0.49999999999999994  0.41641849999999997  1.0000
  P   P180      1.0  0.5692499999999999  0.49999999999999994  0.49975183333333323  1.0000
  N   N177      1.0  0.4774  0.3333333333333333  0.39019599999999993  1.0000
  N   N178      1.0  0.5226  0.3333333333333333  0.47352933333333325  1.0000
  N   N179      1.0  0.5774  0.49999999999999994  0.39019599999999993  1.0000
  N   N180      1.0  0.4226  0.49999999999999994  0.47352933333333325  1.0000
  O   O353      1.0  0.56109  0.3796823333333333  0.4031835  1.0000
  O   O354      1.0  0.56109  0.6203176666666665  0.4031835  1.0000
  O   O355      1.0  0.43890999999999997  0.6203176666666665  0.4865168333333333  1.0000
  O   O356      1.0  0.43890999999999997  0.3796823333333333  0.4865168333333333  1.0000
  O   O357      1.0  0.46109  0.546349  0.4031835  1.0000
  O   O358      1.0  0.46109  0.45365099999999997  0.4031835  1.0000
  O   O359      1.0  0.53891  0.45365099999999997  0.4865168333333333  1.0000
  O   O360      1.0  0.53891  0.546349  0.4865168333333333  1.0000
  Li  Li361     1.0  0.5318929  0.5552238333333332  0.5835926666666665  1.0000
  Li  Li362     1.0  0.5318929  0.44477616666666664  0.5835926666666665  1.0000
  Li  Li363     1.0  0.4681071  0.44477616666666664  0.5002593333333333  1.0000
  Li  Li364     1.0  0.4681071  0.5552238333333332  0.5002593333333333  1.0000
  Li  Li365     1.0  0.4318929  0.3885571666666666  0.5835926666666665  1.0000
  Li  Li366     1.0  0.4318929  0.6114428333333333  0.5835926666666665  1.0000
  Li  Li367     1.0  0.5681071  0.6114428333333333  0.5002593333333333  1.0000
  Li  Li368     1.0  0.5681071  0.3885571666666666  0.5002593333333333  1.0000
  P   P181      1.0  0.53075  0.3333333333333333  0.5830851666666667  1.0000
  P   P182      1.0  0.46925  0.3333333333333333  0.6664185  1.0000
  P   P183      1.0  0.43074999999999997  0.49999999999999994  0.5830851666666667  1.0000
  P   P184      1.0  0.5692499999999999  0.49999999999999994  0.6664185  1.0000
  N   N181      1.0  0.4774  0.3333333333333333  0.5568626666666666  1.0000
  N   N182      1.0  0.5226  0.3333333333333333  0.6401959999999999  1.0000
  N   N183      1.0  0.5774  0.49999999999999994  0.5568626666666666  1.0000
  N   N184      1.0  0.4226  0.49999999999999994  0.6401959999999999  1.0000
  O   O361      1.0  0.56109  0.3796823333333333  0.5698501666666667  1.0000
  O   O362      1.0  0.56109  0.6203176666666665  0.5698501666666667  1.0000
  O   O363      1.0  0.43890999999999997  0.6203176666666665  0.6531834999999999  1.0000
  O   O364      1.0  0.43890999999999997  0.3796823333333333  0.6531834999999999  1.0000
  O   O365      1.0  0.46109  0.546349  0.5698501666666667  1.0000
  O   O366      1.0  0.46109  0.45365099999999997  0.5698501666666667  1.0000
  O   O367      1.0  0.53891  0.45365099999999997  0.6531834999999999  1.0000
  O   O368      1.0  0.53891  0.546349  0.6531834999999999  1.0000
  Li  Li369     1.0  0.5318929  0.5552238333333332  0.7502593333333332  1.0000
  Li  Li370     1.0  0.5318929  0.44477616666666664  0.7502593333333332  1.0000
  Li  Li371     1.0  0.4681071  0.44477616666666664  0.666926  1.0000
  Li  Li372     1.0  0.4681071  0.5552238333333332  0.666926  1.0000
  Li  Li373     1.0  0.4318929  0.3885571666666666  0.7502593333333332  1.0000
  Li  Li374     1.0  0.4318929  0.6114428333333333  0.7502593333333332  1.0000
  Li  Li375     1.0  0.5681071  0.6114428333333333  0.666926  1.0000
  Li  Li376     1.0  0.5681071  0.3885571666666666  0.666926  1.0000
  P   P185      1.0  0.53075  0.3333333333333333  0.7497518333333333  1.0000
  P   P186      1.0  0.46925  0.3333333333333333  0.8330851666666667  1.0000
  P   P187      1.0  0.43074999999999997  0.49999999999999994  0.7497518333333333  1.0000
  P   P188      1.0  0.5692499999999999  0.49999999999999994  0.8330851666666667  1.0000
  N   N185      1.0  0.4774  0.3333333333333333  0.7235293333333334  1.0000
  N   N186      1.0  0.5226  0.3333333333333333  0.8068626666666665  1.0000
  N   N187      1.0  0.5774  0.49999999999999994  0.7235293333333334  1.0000
  N   N188      1.0  0.4226  0.49999999999999994  0.8068626666666665  1.0000
  O   O369      1.0  0.56109  0.3796823333333333  0.7365168333333333  1.0000
  O   O370      1.0  0.56109  0.6203176666666665  0.7365168333333333  1.0000
  O   O371      1.0  0.43890999999999997  0.6203176666666665  0.8198501666666667  1.0000
  O   O372      1.0  0.43890999999999997  0.3796823333333333  0.8198501666666667  1.0000
  O   O373      1.0  0.46109  0.546349  0.7365168333333333  1.0000
  O   O374      1.0  0.46109  0.45365099999999997  0.7365168333333333  1.0000
  O   O375      1.0  0.53891  0.45365099999999997  0.8198501666666667  1.0000
  O   O376      1.0  0.53891  0.546349  0.8198501666666667  1.0000
  Li  Li377     1.0  0.5318929  0.5552238333333332  0.9169259999999998  1.0000
  Li  Li378     1.0  0.5318929  0.44477616666666664  0.9169259999999998  1.0000
  Li  Li379     1.0  0.4681071  0.44477616666666664  0.8335926666666665  1.0000
  Li  Li380     1.0  0.4681071  0.5552238333333332  0.8335926666666665  1.0000
  Li  Li381     1.0  0.4318929  0.3885571666666666  0.9169259999999998  1.0000
  Li  Li382     1.0  0.4318929  0.6114428333333333  0.9169259999999998  1.0000
  Li  Li383     1.0  0.5681071  0.6114428333333333  0.8335926666666665  1.0000
  Li  Li384     1.0  0.5681071  0.3885571666666666  0.8335926666666665  1.0000
  P   P189      1.0  0.53075  0.3333333333333333  0.9164184999999998  1.0000
  P   P190      1.0  0.46925  0.3333333333333333  0.9997518333333333  1.0000
  P   P191      1.0  0.43074999999999997  0.49999999999999994  0.9164184999999998  1.0000
  P   P192      1.0  0.5692499999999999  0.49999999999999994  0.9997518333333333  1.0000
  N   N189      1.0  0.4774  0.3333333333333333  0.8901959999999999  1.0000
  N   N190      1.0  0.5226  0.3333333333333333  0.9735293333333331  1.0000
  N   N191      1.0  0.5774  0.49999999999999994  0.8901959999999999  1.0000
  N   N192      1.0  0.4226  0.49999999999999994  0.9735293333333331  1.0000
  O   O377      1.0  0.56109  0.3796823333333333  0.9031834999999999  1.0000
  O   O378      1.0  0.56109  0.6203176666666665  0.9031834999999999  1.0000
  O   O379      1.0  0.43890999999999997  0.6203176666666665  0.9865168333333332  1.0000
  O   O380      1.0  0.43890999999999997  0.3796823333333333  0.9865168333333332  1.0000
  O   O381      1.0  0.46109  0.546349  0.9031834999999999  1.0000
  O   O382      1.0  0.46109  0.45365099999999997  0.9031834999999999  1.0000
  O   O383      1.0  0.53891  0.45365099999999997  0.9865168333333332  1.0000
  O   O384      1.0  0.53891  0.546349  0.9865168333333332  1.0000
  Li  Li385     1.0  0.5318929  0.8885571666666665  0.08359266666666666  1.0000
  Li  Li386     1.0  0.5318929  0.7781094999999999  0.08359266666666666  1.0000
  Li  Li387     1.0  0.4681071  0.7781094999999999  0.0002593333333333333  1.0000
  Li  Li388     1.0  0.4681071  0.8885571666666665  0.0002593333333333333  1.0000
  Li  Li389     1.0  0.4318929  0.7218904999999999  0.08359266666666666  1.0000
  Li  Li390     1.0  0.4318929  0.9447761666666666  0.08359266666666666  1.0000
  Li  Li391     1.0  0.5681071  0.9447761666666666  0.0002593333333333333  1.0000
  Li  Li392     1.0  0.5681071  0.7218904999999999  0.0002593333333333333  1.0000
  P   P193      1.0  0.53075  0.6666666666666666  0.08308516666666665  1.0000
  P   P194      1.0  0.46925  0.6666666666666666  0.1664185  1.0000
  P   P195      1.0  0.43074999999999997  0.8333333333333331  0.08308516666666665  1.0000
  P   P196      1.0  0.5692499999999999  0.8333333333333331  0.1664185  1.0000
  N   N193      1.0  0.4774  0.6666666666666666  0.05686266666666666  1.0000
  N   N194      1.0  0.5226  0.6666666666666666  0.14019599999999996  1.0000
  N   N195      1.0  0.5774  0.8333333333333331  0.05686266666666666  1.0000
  N   N196      1.0  0.4226  0.8333333333333331  0.14019599999999996  1.0000
  O   O385      1.0  0.56109  0.7130156666666666  0.06985016666666664  1.0000
  O   O386      1.0  0.56109  0.9536509999999998  0.06985016666666664  1.0000
  O   O387      1.0  0.43890999999999997  0.9536509999999998  0.15318349999999997  1.0000
  O   O388      1.0  0.43890999999999997  0.7130156666666666  0.15318349999999997  1.0000
  O   O389      1.0  0.46109  0.8796823333333332  0.06985016666666664  1.0000
  O   O390      1.0  0.46109  0.7869843333333332  0.06985016666666664  1.0000
  O   O391      1.0  0.53891  0.7869843333333332  0.15318349999999997  1.0000
  O   O392      1.0  0.53891  0.8796823333333332  0.15318349999999997  1.0000
  Li  Li393     1.0  0.5318929  0.8885571666666665  0.2502593333333333  1.0000
  Li  Li394     1.0  0.5318929  0.7781094999999999  0.2502593333333333  1.0000
  Li  Li395     1.0  0.4681071  0.7781094999999999  0.166926  1.0000
  Li  Li396     1.0  0.4681071  0.8885571666666665  0.166926  1.0000
  Li  Li397     1.0  0.4318929  0.7218904999999999  0.2502593333333333  1.0000
  Li  Li398     1.0  0.4318929  0.9447761666666666  0.2502593333333333  1.0000
  Li  Li399     1.0  0.5681071  0.9447761666666666  0.166926  1.0000
  Li  Li400     1.0  0.5681071  0.7218904999999999  0.166926  1.0000
  P   P197      1.0  0.53075  0.6666666666666666  0.2497518333333333  1.0000
  P   P198      1.0  0.46925  0.6666666666666666  0.33308516666666665  1.0000
  P   P199      1.0  0.43074999999999997  0.8333333333333331  0.2497518333333333  1.0000
  P   P200      1.0  0.5692499999999999  0.8333333333333331  0.33308516666666665  1.0000
  N   N197      1.0  0.4774  0.6666666666666666  0.22352933333333333  1.0000
  N   N198      1.0  0.5226  0.6666666666666666  0.3068626666666666  1.0000
  N   N199      1.0  0.5774  0.8333333333333331  0.22352933333333333  1.0000
  N   N200      1.0  0.4226  0.8333333333333331  0.3068626666666666  1.0000
  O   O393      1.0  0.56109  0.7130156666666666  0.2365168333333333  1.0000
  O   O394      1.0  0.56109  0.9536509999999998  0.2365168333333333  1.0000
  O   O395      1.0  0.43890999999999997  0.9536509999999998  0.31985016666666666  1.0000
  O   O396      1.0  0.43890999999999997  0.7130156666666666  0.31985016666666666  1.0000
  O   O397      1.0  0.46109  0.8796823333333332  0.2365168333333333  1.0000
  O   O398      1.0  0.46109  0.7869843333333332  0.2365168333333333  1.0000
  O   O399      1.0  0.53891  0.7869843333333332  0.31985016666666666  1.0000
  O   O400      1.0  0.53891  0.8796823333333332  0.31985016666666666  1.0000
  Li  Li401     1.0  0.5318929  0.8885571666666665  0.41692599999999996  1.0000
  Li  Li402     1.0  0.5318929  0.7781094999999999  0.41692599999999996  1.0000
  Li  Li403     1.0  0.4681071  0.7781094999999999  0.3335926666666666  1.0000
  Li  Li404     1.0  0.4681071  0.8885571666666665  0.3335926666666666  1.0000
  Li  Li405     1.0  0.4318929  0.7218904999999999  0.41692599999999996  1.0000
  Li  Li406     1.0  0.4318929  0.9447761666666666  0.41692599999999996  1.0000
  Li  Li407     1.0  0.5681071  0.9447761666666666  0.3335926666666666  1.0000
  Li  Li408     1.0  0.5681071  0.7218904999999999  0.3335926666666666  1.0000
  P   P201      1.0  0.53075  0.6666666666666666  0.41641849999999997  1.0000
  P   P202      1.0  0.46925  0.6666666666666666  0.49975183333333323  1.0000
  P   P203      1.0  0.43074999999999997  0.8333333333333331  0.41641849999999997  1.0000
  P   P204      1.0  0.5692499999999999  0.8333333333333331  0.49975183333333323  1.0000
  N   N201      1.0  0.4774  0.6666666666666666  0.39019599999999993  1.0000
  N   N202      1.0  0.5226  0.6666666666666666  0.47352933333333325  1.0000
  N   N203      1.0  0.5774  0.8333333333333331  0.39019599999999993  1.0000
  N   N204      1.0  0.4226  0.8333333333333331  0.47352933333333325  1.0000
  O   O401      1.0  0.56109  0.7130156666666666  0.4031835  1.0000
  O   O402      1.0  0.56109  0.9536509999999998  0.4031835  1.0000
  O   O403      1.0  0.43890999999999997  0.9536509999999998  0.4865168333333333  1.0000
  O   O404      1.0  0.43890999999999997  0.7130156666666666  0.4865168333333333  1.0000
  O   O405      1.0  0.46109  0.8796823333333332  0.4031835  1.0000
  O   O406      1.0  0.46109  0.7869843333333332  0.4031835  1.0000
  O   O407      1.0  0.53891  0.7869843333333332  0.4865168333333333  1.0000
  O   O408      1.0  0.53891  0.8796823333333332  0.4865168333333333  1.0000
  Li  Li409     1.0  0.5318929  0.8885571666666665  0.5835926666666665  1.0000
  Li  Li410     1.0  0.5318929  0.7781094999999999  0.5835926666666665  1.0000
  Li  Li411     1.0  0.4681071  0.7781094999999999  0.5002593333333333  1.0000
  Li  Li412     1.0  0.4681071  0.8885571666666665  0.5002593333333333  1.0000
  Li  Li413     1.0  0.4318929  0.7218904999999999  0.5835926666666665  1.0000
  Li  Li414     1.0  0.4318929  0.9447761666666666  0.5835926666666665  1.0000
  Li  Li415     1.0  0.5681071  0.9447761666666666  0.5002593333333333  1.0000
  Li  Li416     1.0  0.5681071  0.7218904999999999  0.5002593333333333  1.0000
  P   P205      1.0  0.53075  0.6666666666666666  0.5830851666666667  1.0000
  P   P206      1.0  0.46925  0.6666666666666666  0.6664185  1.0000
  P   P207      1.0  0.43074999999999997  0.8333333333333331  0.5830851666666667  1.0000
  P   P208      1.0  0.5692499999999999  0.8333333333333331  0.6664185  1.0000
  N   N205      1.0  0.4774  0.6666666666666666  0.5568626666666666  1.0000
  N   N206      1.0  0.5226  0.6666666666666666  0.6401959999999999  1.0000
  N   N207      1.0  0.5774  0.8333333333333331  0.5568626666666666  1.0000
  N   N208      1.0  0.4226  0.8333333333333331  0.6401959999999999  1.0000
  O   O409      1.0  0.56109  0.7130156666666666  0.5698501666666667  1.0000
  O   O410      1.0  0.56109  0.9536509999999998  0.5698501666666667  1.0000
  O   O411      1.0  0.43890999999999997  0.9536509999999998  0.6531834999999999  1.0000
  O   O412      1.0  0.43890999999999997  0.7130156666666666  0.6531834999999999  1.0000
  O   O413      1.0  0.46109  0.8796823333333332  0.5698501666666667  1.0000
  O   O414      1.0  0.46109  0.7869843333333332  0.5698501666666667  1.0000
  O   O415      1.0  0.53891  0.7869843333333332  0.6531834999999999  1.0000
  O   O416      1.0  0.53891  0.8796823333333332  0.6531834999999999  1.0000
  Li  Li417     1.0  0.5318929  0.8885571666666665  0.7502593333333332  1.0000
  Li  Li418     1.0  0.5318929  0.7781094999999999  0.7502593333333332  1.0000
  Li  Li419     1.0  0.4681071  0.7781094999999999  0.666926  1.0000
  Li  Li420     1.0  0.4681071  0.8885571666666665  0.666926  1.0000
  Li  Li421     1.0  0.4318929  0.7218904999999999  0.7502593333333332  1.0000
  Li  Li422     1.0  0.4318929  0.9447761666666666  0.7502593333333332  1.0000
  Li  Li423     1.0  0.5681071  0.9447761666666666  0.666926  1.0000
  Li  Li424     1.0  0.5681071  0.7218904999999999  0.666926  1.0000
  P   P209      1.0  0.53075  0.6666666666666666  0.7497518333333333  1.0000
  P   P210      1.0  0.46925  0.6666666666666666  0.8330851666666667  1.0000
  P   P211      1.0  0.43074999999999997  0.8333333333333331  0.7497518333333333  1.0000
  P   P212      1.0  0.5692499999999999  0.8333333333333331  0.8330851666666667  1.0000
  N   N209      1.0  0.4774  0.6666666666666666  0.7235293333333334  1.0000
  N   N210      1.0  0.5226  0.6666666666666666  0.8068626666666665  1.0000
  N   N211      1.0  0.5774  0.8333333333333331  0.7235293333333334  1.0000
  N   N212      1.0  0.4226  0.8333333333333331  0.8068626666666665  1.0000
  O   O417      1.0  0.56109  0.7130156666666666  0.7365168333333333  1.0000
  O   O418      1.0  0.56109  0.9536509999999998  0.7365168333333333  1.0000
  O   O419      1.0  0.43890999999999997  0.9536509999999998  0.8198501666666667  1.0000
  O   O420      1.0  0.43890999999999997  0.7130156666666666  0.8198501666666667  1.0000
  O   O421      1.0  0.46109  0.8796823333333332  0.7365168333333333  1.0000
  O   O422      1.0  0.46109  0.7869843333333332  0.7365168333333333  1.0000
  O   O423      1.0  0.53891  0.7869843333333332  0.8198501666666667  1.0000
  O   O424      1.0  0.53891  0.8796823333333332  0.8198501666666667  1.0000
  Li  Li425     1.0  0.5318929  0.8885571666666665  0.9169259999999998  1.0000
  Li  Li426     1.0  0.5318929  0.7781094999999999  0.9169259999999998  1.0000
  Li  Li427     1.0  0.4681071  0.7781094999999999  0.8335926666666665  1.0000
  Li  Li428     1.0  0.4681071  0.8885571666666665  0.8335926666666665  1.0000
  Li  Li429     1.0  0.4318929  0.7218904999999999  0.9169259999999998  1.0000
  Li  Li430     1.0  0.4318929  0.9447761666666666  0.9169259999999998  1.0000
  Li  Li431     1.0  0.5681071  0.9447761666666666  0.8335926666666665  1.0000
  Li  Li432     1.0  0.5681071  0.7218904999999999  0.8335926666666665  1.0000
  P   P213      1.0  0.53075  0.6666666666666666  0.9164184999999998  1.0000
  P   P214      1.0  0.46925  0.6666666666666666  0.9997518333333333  1.0000
  P   P215      1.0  0.43074999999999997  0.8333333333333331  0.9164184999999998  1.0000
  P   P216      1.0  0.5692499999999999  0.8333333333333331  0.9997518333333333  1.0000
  N   N213      1.0  0.4774  0.6666666666666666  0.8901959999999999  1.0000
  N   N214      1.0  0.5226  0.6666666666666666  0.9735293333333331  1.0000
  N   N215      1.0  0.5774  0.8333333333333331  0.8901959999999999  1.0000
  N   N216      1.0  0.4226  0.8333333333333331  0.9735293333333331  1.0000
  O   O425      1.0  0.56109  0.7130156666666666  0.9031834999999999  1.0000
  O   O426      1.0  0.56109  0.9536509999999998  0.9031834999999999  1.0000
  O   O427      1.0  0.43890999999999997  0.9536509999999998  0.9865168333333332  1.0000
  O   O428      1.0  0.43890999999999997  0.7130156666666666  0.9865168333333332  1.0000
  O   O429      1.0  0.46109  0.8796823333333332  0.9031834999999999  1.0000
  O   O430      1.0  0.46109  0.7869843333333332  0.9031834999999999  1.0000
  O   O431      1.0  0.53891  0.7869843333333332  0.9865168333333332  1.0000
  O   O432      1.0  0.53891  0.8796823333333332  0.9865168333333332  1.0000
  Li  Li433     1.0  0.7318929  0.22189049999999996  0.08359266666666666  1.0000
  Li  Li434     1.0  0.7318929  0.11144283333333331  0.08359266666666666  1.0000
  Li  Li435     1.0  0.6681071000000001  0.11144283333333331  0.0002593333333333333  1.0000
  Li  Li436     1.0  0.6681071000000001  0.22189049999999996  0.0002593333333333333  1.0000
  Li  Li437     1.0  0.6318929  0.055223833333333326  0.08359266666666666  1.0000
  Li  Li438     1.0  0.6318929  0.2781095  0.08359266666666666  1.0000
  Li  Li439     1.0  0.7681070999999999  0.2781095  0.0002593333333333333  1.0000
  Li  Li440     1.0  0.7681070999999999  0.055223833333333326  0.0002593333333333333  1.0000
  P   P217      1.0  0.73075  0.0  0.08308516666666665  1.0000
  P   P218      1.0  0.66925  0.0  0.1664185  1.0000
  P   P219      1.0  0.63075  0.16666666666666666  0.08308516666666665  1.0000
  P   P220      1.0  0.7692499999999999  0.16666666666666666  0.1664185  1.0000
  N   N217      1.0  0.6774  0.0  0.05686266666666666  1.0000
  N   N218      1.0  0.7226  0.0  0.14019599999999996  1.0000
  N   N219      1.0  0.7774000000000001  0.16666666666666666  0.05686266666666666  1.0000
  N   N220      1.0  0.6225999999999999  0.16666666666666666  0.14019599999999996  1.0000
  O   O433      1.0  0.76109  0.046348999999999994  0.06985016666666664  1.0000
  O   O434      1.0  0.76109  0.2869843333333333  0.06985016666666664  1.0000
  O   O435      1.0  0.63891  0.2869843333333333  0.15318349999999997  1.0000
  O   O436      1.0  0.63891  0.046348999999999994  0.15318349999999997  1.0000
  O   O437      1.0  0.66109  0.21301566666666666  0.06985016666666664  1.0000
  O   O438      1.0  0.66109  0.12031766666666666  0.06985016666666664  1.0000
  O   O439      1.0  0.7389100000000001  0.12031766666666666  0.15318349999999997  1.0000
  O   O440      1.0  0.7389100000000001  0.21301566666666666  0.15318349999999997  1.0000
  Li  Li441     1.0  0.7318929  0.22189049999999996  0.2502593333333333  1.0000
  Li  Li442     1.0  0.7318929  0.11144283333333331  0.2502593333333333  1.0000
  Li  Li443     1.0  0.6681071000000001  0.11144283333333331  0.166926  1.0000
  Li  Li444     1.0  0.6681071000000001  0.22189049999999996  0.166926  1.0000
  Li  Li445     1.0  0.6318929  0.055223833333333326  0.2502593333333333  1.0000
  Li  Li446     1.0  0.6318929  0.2781095  0.2502593333333333  1.0000
  Li  Li447     1.0  0.7681070999999999  0.2781095  0.166926  1.0000
  Li  Li448     1.0  0.7681070999999999  0.055223833333333326  0.166926  1.0000
  P   P221      1.0  0.73075  0.0  0.2497518333333333  1.0000
  P   P222      1.0  0.66925  0.0  0.33308516666666665  1.0000
  P   P223      1.0  0.63075  0.16666666666666666  0.2497518333333333  1.0000
  P   P224      1.0  0.7692499999999999  0.16666666666666666  0.33308516666666665  1.0000
  N   N221      1.0  0.6774  0.0  0.22352933333333333  1.0000
  N   N222      1.0  0.7226  0.0  0.3068626666666666  1.0000
  N   N223      1.0  0.7774000000000001  0.16666666666666666  0.22352933333333333  1.0000
  N   N224      1.0  0.6225999999999999  0.16666666666666666  0.3068626666666666  1.0000
  O   O441      1.0  0.76109  0.046348999999999994  0.2365168333333333  1.0000
  O   O442      1.0  0.76109  0.2869843333333333  0.2365168333333333  1.0000
  O   O443      1.0  0.63891  0.2869843333333333  0.31985016666666666  1.0000
  O   O444      1.0  0.63891  0.046348999999999994  0.31985016666666666  1.0000
  O   O445      1.0  0.66109  0.21301566666666666  0.2365168333333333  1.0000
  O   O446      1.0  0.66109  0.12031766666666666  0.2365168333333333  1.0000
  O   O447      1.0  0.7389100000000001  0.12031766666666666  0.31985016666666666  1.0000
  O   O448      1.0  0.7389100000000001  0.21301566666666666  0.31985016666666666  1.0000
  Li  Li449     1.0  0.7318929  0.22189049999999996  0.41692599999999996  1.0000
  Li  Li450     1.0  0.7318929  0.11144283333333331  0.41692599999999996  1.0000
  Li  Li451     1.0  0.6681071000000001  0.11144283333333331  0.3335926666666666  1.0000
  Li  Li452     1.0  0.6681071000000001  0.22189049999999996  0.3335926666666666  1.0000
  Li  Li453     1.0  0.6318929  0.055223833333333326  0.41692599999999996  1.0000
  Li  Li454     1.0  0.6318929  0.2781095  0.41692599999999996  1.0000
  Li  Li455     1.0  0.7681070999999999  0.2781095  0.3335926666666666  1.0000
  Li  Li456     1.0  0.7681070999999999  0.055223833333333326  0.3335926666666666  1.0000
  P   P225      1.0  0.73075  0.0  0.41641849999999997  1.0000
  P   P226      1.0  0.66925  0.0  0.49975183333333323  1.0000
  P   P227      1.0  0.63075  0.16666666666666666  0.41641849999999997  1.0000
  P   P228      1.0  0.7692499999999999  0.16666666666666666  0.49975183333333323  1.0000
  N   N225      1.0  0.6774  0.0  0.39019599999999993  1.0000
  N   N226      1.0  0.7226  0.0  0.47352933333333325  1.0000
  N   N227      1.0  0.7774000000000001  0.16666666666666666  0.39019599999999993  1.0000
  N   N228      1.0  0.6225999999999999  0.16666666666666666  0.47352933333333325  1.0000
  O   O449      1.0  0.76109  0.046348999999999994  0.4031835  1.0000
  O   O450      1.0  0.76109  0.2869843333333333  0.4031835  1.0000
  O   O451      1.0  0.63891  0.2869843333333333  0.4865168333333333  1.0000
  O   O452      1.0  0.63891  0.046348999999999994  0.4865168333333333  1.0000
  O   O453      1.0  0.66109  0.21301566666666666  0.4031835  1.0000
  O   O454      1.0  0.66109  0.12031766666666666  0.4031835  1.0000
  O   O455      1.0  0.7389100000000001  0.12031766666666666  0.4865168333333333  1.0000
  O   O456      1.0  0.7389100000000001  0.21301566666666666  0.4865168333333333  1.0000
  Li  Li457     1.0  0.7318929  0.22189049999999996  0.5835926666666665  1.0000
  Li  Li458     1.0  0.7318929  0.11144283333333331  0.5835926666666665  1.0000
  Li  Li459     1.0  0.6681071000000001  0.11144283333333331  0.5002593333333333  1.0000
  Li  Li460     1.0  0.6681071000000001  0.22189049999999996  0.5002593333333333  1.0000
  Li  Li461     1.0  0.6318929  0.055223833333333326  0.5835926666666665  1.0000
  Li  Li462     1.0  0.6318929  0.2781095  0.5835926666666665  1.0000
  Li  Li463     1.0  0.7681070999999999  0.2781095  0.5002593333333333  1.0000
  Li  Li464     1.0  0.7681070999999999  0.055223833333333326  0.5002593333333333  1.0000
  P   P229      1.0  0.73075  0.0  0.5830851666666667  1.0000
  P   P230      1.0  0.66925  0.0  0.6664185  1.0000
  P   P231      1.0  0.63075  0.16666666666666666  0.5830851666666667  1.0000
  P   P232      1.0  0.7692499999999999  0.16666666666666666  0.6664185  1.0000
  N   N229      1.0  0.6774  0.0  0.5568626666666666  1.0000
  N   N230      1.0  0.7226  0.0  0.6401959999999999  1.0000
  N   N231      1.0  0.7774000000000001  0.16666666666666666  0.5568626666666666  1.0000
  N   N232      1.0  0.6225999999999999  0.16666666666666666  0.6401959999999999  1.0000
  O   O457      1.0  0.76109  0.046348999999999994  0.5698501666666667  1.0000
  O   O458      1.0  0.76109  0.2869843333333333  0.5698501666666667  1.0000
  O   O459      1.0  0.63891  0.2869843333333333  0.6531834999999999  1.0000
  O   O460      1.0  0.63891  0.046348999999999994  0.6531834999999999  1.0000
  O   O461      1.0  0.66109  0.21301566666666666  0.5698501666666667  1.0000
  O   O462      1.0  0.66109  0.12031766666666666  0.5698501666666667  1.0000
  O   O463      1.0  0.7389100000000001  0.12031766666666666  0.6531834999999999  1.0000
  O   O464      1.0  0.7389100000000001  0.21301566666666666  0.6531834999999999  1.0000
  Li  Li465     1.0  0.7318929  0.22189049999999996  0.7502593333333332  1.0000
  Li  Li466     1.0  0.7318929  0.11144283333333331  0.7502593333333332  1.0000
  Li  Li467     1.0  0.6681071000000001  0.11144283333333331  0.666926  1.0000
  Li  Li468     1.0  0.6681071000000001  0.22189049999999996  0.666926  1.0000
  Li  Li469     1.0  0.6318929  0.055223833333333326  0.7502593333333332  1.0000
  Li  Li470     1.0  0.6318929  0.2781095  0.7502593333333332  1.0000
  Li  Li471     1.0  0.7681070999999999  0.2781095  0.666926  1.0000
  Li  Li472     1.0  0.7681070999999999  0.055223833333333326  0.666926  1.0000
  P   P233      1.0  0.73075  0.0  0.7497518333333333  1.0000
  P   P234      1.0  0.66925  0.0  0.8330851666666667  1.0000
  P   P235      1.0  0.63075  0.16666666666666666  0.7497518333333333  1.0000
  P   P236      1.0  0.7692499999999999  0.16666666666666666  0.8330851666666667  1.0000
  N   N233      1.0  0.6774  0.0  0.7235293333333334  1.0000
  N   N234      1.0  0.7226  0.0  0.8068626666666665  1.0000
  N   N235      1.0  0.7774000000000001  0.16666666666666666  0.7235293333333334  1.0000
  N   N236      1.0  0.6225999999999999  0.16666666666666666  0.8068626666666665  1.0000
  O   O465      1.0  0.76109  0.046348999999999994  0.7365168333333333  1.0000
  O   O466      1.0  0.76109  0.2869843333333333  0.7365168333333333  1.0000
  O   O467      1.0  0.63891  0.2869843333333333  0.8198501666666667  1.0000
  O   O468      1.0  0.63891  0.046348999999999994  0.8198501666666667  1.0000
  O   O469      1.0  0.66109  0.21301566666666666  0.7365168333333333  1.0000
  O   O470      1.0  0.66109  0.12031766666666666  0.7365168333333333  1.0000
  O   O471      1.0  0.7389100000000001  0.12031766666666666  0.8198501666666667  1.0000
  O   O472      1.0  0.7389100000000001  0.21301566666666666  0.8198501666666667  1.0000
  Li  Li473     1.0  0.7318929  0.22189049999999996  0.9169259999999998  1.0000
  Li  Li474     1.0  0.7318929  0.11144283333333331  0.9169259999999998  1.0000
  Li  Li475     1.0  0.6681071000000001  0.11144283333333331  0.8335926666666665  1.0000
  Li  Li476     1.0  0.6681071000000001  0.22189049999999996  0.8335926666666665  1.0000
  Li  Li477     1.0  0.6318929  0.055223833333333326  0.9169259999999998  1.0000
  Li  Li478     1.0  0.6318929  0.2781095  0.9169259999999998  1.0000
  Li  Li479     1.0  0.7681070999999999  0.2781095  0.8335926666666665  1.0000
  Li  Li480     1.0  0.7681070999999999  0.055223833333333326  0.8335926666666665  1.0000
  P   P237      1.0  0.73075  0.0  0.9164184999999998  1.0000
  P   P238      1.0  0.66925  0.0  0.9997518333333333  1.0000
  P   P239      1.0  0.63075  0.16666666666666666  0.9164184999999998  1.0000
  P   P240      1.0  0.7692499999999999  0.16666666666666666  0.9997518333333333  1.0000
  N   N237      1.0  0.6774  0.0  0.8901959999999999  1.0000
  N   N238      1.0  0.7226  0.0  0.9735293333333331  1.0000
  N   N239      1.0  0.7774000000000001  0.16666666666666666  0.8901959999999999  1.0000
  N   N240      1.0  0.6225999999999999  0.16666666666666666  0.9735293333333331  1.0000
  O   O473      1.0  0.76109  0.046348999999999994  0.9031834999999999  1.0000
  O   O474      1.0  0.76109  0.2869843333333333  0.9031834999999999  1.0000
  O   O475      1.0  0.63891  0.2869843333333333  0.9865168333333332  1.0000
  O   O476      1.0  0.63891  0.046348999999999994  0.9865168333333332  1.0000
  O   O477      1.0  0.66109  0.21301566666666666  0.9031834999999999  1.0000
  O   O478      1.0  0.66109  0.12031766666666666  0.9031834999999999  1.0000
  O   O479      1.0  0.7389100000000001  0.12031766666666666  0.9865168333333332  1.0000
  O   O480      1.0  0.7389100000000001  0.21301566666666666  0.9865168333333332  1.0000
  Li  Li481     1.0  0.7318929  0.5552238333333332  0.08359266666666666  1.0000
  Li  Li482     1.0  0.7318929  0.44477616666666664  0.08359266666666666  1.0000
  Li  Li483     1.0  0.6681071000000001  0.44477616666666664  0.0002593333333333333  1.0000
  Li  Li484     1.0  0.6681071000000001  0.5552238333333332  0.0002593333333333333  1.0000
  Li  Li485     1.0  0.6318929  0.3885571666666666  0.08359266666666666  1.0000
  Li  Li486     1.0  0.6318929  0.6114428333333333  0.08359266666666666  1.0000
  Li  Li487     1.0  0.7681070999999999  0.6114428333333333  0.0002593333333333333  1.0000
  Li  Li488     1.0  0.7681070999999999  0.3885571666666666  0.0002593333333333333  1.0000
  P   P241      1.0  0.73075  0.3333333333333333  0.08308516666666665  1.0000
  P   P242      1.0  0.66925  0.3333333333333333  0.1664185  1.0000
  P   P243      1.0  0.63075  0.49999999999999994  0.08308516666666665  1.0000
  P   P244      1.0  0.7692499999999999  0.49999999999999994  0.1664185  1.0000
  N   N241      1.0  0.6774  0.3333333333333333  0.05686266666666666  1.0000
  N   N242      1.0  0.7226  0.3333333333333333  0.14019599999999996  1.0000
  N   N243      1.0  0.7774000000000001  0.49999999999999994  0.05686266666666666  1.0000
  N   N244      1.0  0.6225999999999999  0.49999999999999994  0.14019599999999996  1.0000
  O   O481      1.0  0.76109  0.3796823333333333  0.06985016666666664  1.0000
  O   O482      1.0  0.76109  0.6203176666666665  0.06985016666666664  1.0000
  O   O483      1.0  0.63891  0.6203176666666665  0.15318349999999997  1.0000
  O   O484      1.0  0.63891  0.3796823333333333  0.15318349999999997  1.0000
  O   O485      1.0  0.66109  0.546349  0.06985016666666664  1.0000
  O   O486      1.0  0.66109  0.45365099999999997  0.06985016666666664  1.0000
  O   O487      1.0  0.7389100000000001  0.45365099999999997  0.15318349999999997  1.0000
  O   O488      1.0  0.7389100000000001  0.546349  0.15318349999999997  1.0000
  Li  Li489     1.0  0.7318929  0.5552238333333332  0.2502593333333333  1.0000
  Li  Li490     1.0  0.7318929  0.44477616666666664  0.2502593333333333  1.0000
  Li  Li491     1.0  0.6681071000000001  0.44477616666666664  0.166926  1.0000
  Li  Li492     1.0  0.6681071000000001  0.5552238333333332  0.166926  1.0000
  Li  Li493     1.0  0.6318929  0.3885571666666666  0.2502593333333333  1.0000
  Li  Li494     1.0  0.6318929  0.6114428333333333  0.2502593333333333  1.0000
  Li  Li495     1.0  0.7681070999999999  0.6114428333333333  0.166926  1.0000
  Li  Li496     1.0  0.7681070999999999  0.3885571666666666  0.166926  1.0000
  P   P245      1.0  0.73075  0.3333333333333333  0.2497518333333333  1.0000
  P   P246      1.0  0.66925  0.3333333333333333  0.33308516666666665  1.0000
  P   P247      1.0  0.63075  0.49999999999999994  0.2497518333333333  1.0000
  P   P248      1.0  0.7692499999999999  0.49999999999999994  0.33308516666666665  1.0000
  N   N245      1.0  0.6774  0.3333333333333333  0.22352933333333333  1.0000
  N   N246      1.0  0.7226  0.3333333333333333  0.3068626666666666  1.0000
  N   N247      1.0  0.7774000000000001  0.49999999999999994  0.22352933333333333  1.0000
  N   N248      1.0  0.6225999999999999  0.49999999999999994  0.3068626666666666  1.0000
  O   O489      1.0  0.76109  0.3796823333333333  0.2365168333333333  1.0000
  O   O490      1.0  0.76109  0.6203176666666665  0.2365168333333333  1.0000
  O   O491      1.0  0.63891  0.6203176666666665  0.31985016666666666  1.0000
  O   O492      1.0  0.63891  0.3796823333333333  0.31985016666666666  1.0000
  O   O493      1.0  0.66109  0.546349  0.2365168333333333  1.0000
  O   O494      1.0  0.66109  0.45365099999999997  0.2365168333333333  1.0000
  O   O495      1.0  0.7389100000000001  0.45365099999999997  0.31985016666666666  1.0000
  O   O496      1.0  0.7389100000000001  0.546349  0.31985016666666666  1.0000
  Li  Li497     1.0  0.7318929  0.5552238333333332  0.41692599999999996  1.0000
  Li  Li498     1.0  0.7318929  0.44477616666666664  0.41692599999999996  1.0000
  Li  Li499     1.0  0.6681071000000001  0.44477616666666664  0.3335926666666666  1.0000
  Li  Li500     1.0  0.6681071000000001  0.5552238333333332  0.3335926666666666  1.0000
  Li  Li501     1.0  0.6318929  0.3885571666666666  0.41692599999999996  1.0000
  Li  Li502     1.0  0.6318929  0.6114428333333333  0.41692599999999996  1.0000
  Li  Li503     1.0  0.7681070999999999  0.6114428333333333  0.3335926666666666  1.0000
  Li  Li504     1.0  0.7681070999999999  0.3885571666666666  0.3335926666666666  1.0000
  P   P249      1.0  0.73075  0.3333333333333333  0.41641849999999997  1.0000
  P   P250      1.0  0.66925  0.3333333333333333  0.49975183333333323  1.0000
  P   P251      1.0  0.63075  0.49999999999999994  0.41641849999999997  1.0000
  P   P252      1.0  0.7692499999999999  0.49999999999999994  0.49975183333333323  1.0000
  N   N249      1.0  0.6774  0.3333333333333333  0.39019599999999993  1.0000
  N   N250      1.0  0.7226  0.3333333333333333  0.47352933333333325  1.0000
  N   N251      1.0  0.7774000000000001  0.49999999999999994  0.39019599999999993  1.0000
  N   N252      1.0  0.6225999999999999  0.49999999999999994  0.47352933333333325  1.0000
  O   O497      1.0  0.76109  0.3796823333333333  0.4031835  1.0000
  O   O498      1.0  0.76109  0.6203176666666665  0.4031835  1.0000
  O   O499      1.0  0.63891  0.6203176666666665  0.4865168333333333  1.0000
  O   O500      1.0  0.63891  0.3796823333333333  0.4865168333333333  1.0000
  O   O501      1.0  0.66109  0.546349  0.4031835  1.0000
  O   O502      1.0  0.66109  0.45365099999999997  0.4031835  1.0000
  O   O503      1.0  0.7389100000000001  0.45365099999999997  0.4865168333333333  1.0000
  O   O504      1.0  0.7389100000000001  0.546349  0.4865168333333333  1.0000
  Li  Li505     1.0  0.7318929  0.5552238333333332  0.5835926666666665  1.0000
  Li  Li506     1.0  0.7318929  0.44477616666666664  0.5835926666666665  1.0000
  Li  Li507     1.0  0.6681071000000001  0.44477616666666664  0.5002593333333333  1.0000
  Li  Li508     1.0  0.6681071000000001  0.5552238333333332  0.5002593333333333  1.0000
  Li  Li509     1.0  0.6318929  0.3885571666666666  0.5835926666666665  1.0000
  Li  Li510     1.0  0.6318929  0.6114428333333333  0.5835926666666665  1.0000
  Li  Li511     1.0  0.7681070999999999  0.6114428333333333  0.5002593333333333  1.0000
  Li  Li512     1.0  0.7681070999999999  0.3885571666666666  0.5002593333333333  1.0000
  P   P253      1.0  0.73075  0.3333333333333333  0.5830851666666667  1.0000
  P   P254      1.0  0.66925  0.3333333333333333  0.6664185  1.0000
  P   P255      1.0  0.63075  0.49999999999999994  0.5830851666666667  1.0000
  P   P256      1.0  0.7692499999999999  0.49999999999999994  0.6664185  1.0000
  N   N253      1.0  0.6774  0.3333333333333333  0.5568626666666666  1.0000
  N   N254      1.0  0.7226  0.3333333333333333  0.6401959999999999  1.0000
  N   N255      1.0  0.7774000000000001  0.49999999999999994  0.5568626666666666  1.0000
  N   N256      1.0  0.6225999999999999  0.49999999999999994  0.6401959999999999  1.0000
  O   O505      1.0  0.76109  0.3796823333333333  0.5698501666666667  1.0000
  O   O506      1.0  0.76109  0.6203176666666665  0.5698501666666667  1.0000
  O   O507      1.0  0.63891  0.6203176666666665  0.6531834999999999  1.0000
  O   O508      1.0  0.63891  0.3796823333333333  0.6531834999999999  1.0000
  O   O509      1.0  0.66109  0.546349  0.5698501666666667  1.0000
  O   O510      1.0  0.66109  0.45365099999999997  0.5698501666666667  1.0000
  O   O511      1.0  0.7389100000000001  0.45365099999999997  0.6531834999999999  1.0000
  O   O512      1.0  0.7389100000000001  0.546349  0.6531834999999999  1.0000
  Li  Li513     1.0  0.7318929  0.5552238333333332  0.7502593333333332  1.0000
  Li  Li514     1.0  0.7318929  0.44477616666666664  0.7502593333333332  1.0000
  Li  Li515     1.0  0.6681071000000001  0.44477616666666664  0.666926  1.0000
  Li  Li516     1.0  0.6681071000000001  0.5552238333333332  0.666926  1.0000
  Li  Li517     1.0  0.6318929  0.3885571666666666  0.7502593333333332  1.0000
  Li  Li518     1.0  0.6318929  0.6114428333333333  0.7502593333333332  1.0000
  Li  Li519     1.0  0.7681070999999999  0.6114428333333333  0.666926  1.0000
  Li  Li520     1.0  0.7681070999999999  0.3885571666666666  0.666926  1.0000
  P   P257      1.0  0.73075  0.3333333333333333  0.7497518333333333  1.0000
  P   P258      1.0  0.66925  0.3333333333333333  0.8330851666666667  1.0000
  P   P259      1.0  0.63075  0.49999999999999994  0.7497518333333333  1.0000
  P   P260      1.0  0.7692499999999999  0.49999999999999994  0.8330851666666667  1.0000
  N   N257      1.0  0.6774  0.3333333333333333  0.7235293333333334  1.0000
  N   N258      1.0  0.7226  0.3333333333333333  0.8068626666666665  1.0000
  N   N259      1.0  0.7774000000000001  0.49999999999999994  0.7235293333333334  1.0000
  N   N260      1.0  0.6225999999999999  0.49999999999999994  0.8068626666666665  1.0000
  O   O513      1.0  0.76109  0.3796823333333333  0.7365168333333333  1.0000
  O   O514      1.0  0.76109  0.6203176666666665  0.7365168333333333  1.0000
  O   O515      1.0  0.63891  0.6203176666666665  0.8198501666666667  1.0000
  O   O516      1.0  0.63891  0.3796823333333333  0.8198501666666667  1.0000
  O   O517      1.0  0.66109  0.546349  0.7365168333333333  1.0000
  O   O518      1.0  0.66109  0.45365099999999997  0.7365168333333333  1.0000
  O   O519      1.0  0.7389100000000001  0.45365099999999997  0.8198501666666667  1.0000
  O   O520      1.0  0.7389100000000001  0.546349  0.8198501666666667  1.0000
  Li  Li521     1.0  0.7318929  0.5552238333333332  0.9169259999999998  1.0000
  Li  Li522     1.0  0.7318929  0.44477616666666664  0.9169259999999998  1.0000
  Li  Li523     1.0  0.6681071000000001  0.44477616666666664  0.8335926666666665  1.0000
  Li  Li524     1.0  0.6681071000000001  0.5552238333333332  0.8335926666666665  1.0000
  Li  Li525     1.0  0.6318929  0.3885571666666666  0.9169259999999998  1.0000
  Li  Li526     1.0  0.6318929  0.6114428333333333  0.9169259999999998  1.0000
  Li  Li527     1.0  0.7681070999999999  0.6114428333333333  0.8335926666666665  1.0000
  Li  Li528     1.0  0.7681070999999999  0.3885571666666666  0.8335926666666665  1.0000
  P   P261      1.0  0.73075  0.3333333333333333  0.9164184999999998  1.0000
  P   P262      1.0  0.66925  0.3333333333333333  0.9997518333333333  1.0000
  P   P263      1.0  0.63075  0.49999999999999994  0.9164184999999998  1.0000
  P   P264      1.0  0.7692499999999999  0.49999999999999994  0.9997518333333333  1.0000
  N   N261      1.0  0.6774  0.3333333333333333  0.8901959999999999  1.0000
  N   N262      1.0  0.7226  0.3333333333333333  0.9735293333333331  1.0000
  N   N263      1.0  0.7774000000000001  0.49999999999999994  0.8901959999999999  1.0000
  N   N264      1.0  0.6225999999999999  0.49999999999999994  0.9735293333333331  1.0000
  O   O521      1.0  0.76109  0.3796823333333333  0.9031834999999999  1.0000
  O   O522      1.0  0.76109  0.6203176666666665  0.9031834999999999  1.0000
  O   O523      1.0  0.63891  0.6203176666666665  0.9865168333333332  1.0000
  O   O524      1.0  0.63891  0.3796823333333333  0.9865168333333332  1.0000
  O   O525      1.0  0.66109  0.546349  0.9031834999999999  1.0000
  O   O526      1.0  0.66109  0.45365099999999997  0.9031834999999999  1.0000
  O   O527      1.0  0.7389100000000001  0.45365099999999997  0.9865168333333332  1.0000
  O   O528      1.0  0.7389100000000001  0.546349  0.9865168333333332  1.0000
  Li  Li529     1.0  0.7318929  0.8885571666666665  0.08359266666666666  1.0000
  Li  Li530     1.0  0.7318929  0.7781094999999999  0.08359266666666666  1.0000
  Li  Li531     1.0  0.6681071000000001  0.7781094999999999  0.0002593333333333333  1.0000
  Li  Li532     1.0  0.6681071000000001  0.8885571666666665  0.0002593333333333333  1.0000
  Li  Li533     1.0  0.6318929  0.7218904999999999  0.08359266666666666  1.0000
  Li  Li534     1.0  0.6318929  0.9447761666666666  0.08359266666666666  1.0000
  Li  Li535     1.0  0.7681070999999999  0.9447761666666666  0.0002593333333333333  1.0000
  Li  Li536     1.0  0.7681070999999999  0.7218904999999999  0.0002593333333333333  1.0000
  P   P265      1.0  0.73075  0.6666666666666666  0.08308516666666665  1.0000
  P   P266      1.0  0.66925  0.6666666666666666  0.1664185  1.0000
  P   P267      1.0  0.63075  0.8333333333333331  0.08308516666666665  1.0000
  P   P268      1.0  0.7692499999999999  0.8333333333333331  0.1664185  1.0000
  N   N265      1.0  0.6774  0.6666666666666666  0.05686266666666666  1.0000
  N   N266      1.0  0.7226  0.6666666666666666  0.14019599999999996  1.0000
  N   N267      1.0  0.7774000000000001  0.8333333333333331  0.05686266666666666  1.0000
  N   N268      1.0  0.6225999999999999  0.8333333333333331  0.14019599999999996  1.0000
  O   O529      1.0  0.76109  0.7130156666666666  0.06985016666666664  1.0000
  O   O530      1.0  0.76109  0.9536509999999998  0.06985016666666664  1.0000
  O   O531      1.0  0.63891  0.9536509999999998  0.15318349999999997  1.0000
  O   O532      1.0  0.63891  0.7130156666666666  0.15318349999999997  1.0000
  O   O533      1.0  0.66109  0.8796823333333332  0.06985016666666664  1.0000
  O   O534      1.0  0.66109  0.7869843333333332  0.06985016666666664  1.0000
  O   O535      1.0  0.7389100000000001  0.7869843333333332  0.15318349999999997  1.0000
  O   O536      1.0  0.7389100000000001  0.8796823333333332  0.15318349999999997  1.0000
  Li  Li537     1.0  0.7318929  0.8885571666666665  0.2502593333333333  1.0000
  Li  Li538     1.0  0.7318929  0.7781094999999999  0.2502593333333333  1.0000
  Li  Li539     1.0  0.6681071000000001  0.7781094999999999  0.166926  1.0000
  Li  Li540     1.0  0.6681071000000001  0.8885571666666665  0.166926  1.0000
  Li  Li541     1.0  0.6318929  0.7218904999999999  0.2502593333333333  1.0000
  Li  Li542     1.0  0.6318929  0.9447761666666666  0.2502593333333333  1.0000
  Li  Li543     1.0  0.7681070999999999  0.9447761666666666  0.166926  1.0000
  Li  Li544     1.0  0.7681070999999999  0.7218904999999999  0.166926  1.0000
  P   P269      1.0  0.73075  0.6666666666666666  0.2497518333333333  1.0000
  P   P270      1.0  0.66925  0.6666666666666666  0.33308516666666665  1.0000
  P   P271      1.0  0.63075  0.8333333333333331  0.2497518333333333  1.0000
  P   P272      1.0  0.7692499999999999  0.8333333333333331  0.33308516666666665  1.0000
  N   N269      1.0  0.6774  0.6666666666666666  0.22352933333333333  1.0000
  N   N270      1.0  0.7226  0.6666666666666666  0.3068626666666666  1.0000
  N   N271      1.0  0.7774000000000001  0.8333333333333331  0.22352933333333333  1.0000
  N   N272      1.0  0.6225999999999999  0.8333333333333331  0.3068626666666666  1.0000
  O   O537      1.0  0.76109  0.7130156666666666  0.2365168333333333  1.0000
  O   O538      1.0  0.76109  0.9536509999999998  0.2365168333333333  1.0000
  O   O539      1.0  0.63891  0.9536509999999998  0.31985016666666666  1.0000
  O   O540      1.0  0.63891  0.7130156666666666  0.31985016666666666  1.0000
  O   O541      1.0  0.66109  0.8796823333333332  0.2365168333333333  1.0000
  O   O542      1.0  0.66109  0.7869843333333332  0.2365168333333333  1.0000
  O   O543      1.0  0.7389100000000001  0.7869843333333332  0.31985016666666666  1.0000
  O   O544      1.0  0.7389100000000001  0.8796823333333332  0.31985016666666666  1.0000
  Li  Li545     1.0  0.7318929  0.8885571666666665  0.41692599999999996  1.0000
  Li  Li546     1.0  0.7318929  0.7781094999999999  0.41692599999999996  1.0000
  Li  Li547     1.0  0.6681071000000001  0.7781094999999999  0.3335926666666666  1.0000
  Li  Li548     1.0  0.6681071000000001  0.8885571666666665  0.3335926666666666  1.0000
  Li  Li549     1.0  0.6318929  0.7218904999999999  0.41692599999999996  1.0000
  Li  Li550     1.0  0.6318929  0.9447761666666666  0.41692599999999996  1.0000
  Li  Li551     1.0  0.7681070999999999  0.9447761666666666  0.3335926666666666  1.0000
  Li  Li552     1.0  0.7681070999999999  0.7218904999999999  0.3335926666666666  1.0000
  P   P273      1.0  0.73075  0.6666666666666666  0.41641849999999997  1.0000
  P   P274      1.0  0.66925  0.6666666666666666  0.49975183333333323  1.0000
  P   P275      1.0  0.63075  0.8333333333333331  0.41641849999999997  1.0000
  P   P276      1.0  0.7692499999999999  0.8333333333333331  0.49975183333333323  1.0000
  N   N273      1.0  0.6774  0.6666666666666666  0.39019599999999993  1.0000
  N   N274      1.0  0.7226  0.6666666666666666  0.47352933333333325  1.0000
  N   N275      1.0  0.7774000000000001  0.8333333333333331  0.39019599999999993  1.0000
  N   N276      1.0  0.6225999999999999  0.8333333333333331  0.47352933333333325  1.0000
  O   O545      1.0  0.76109  0.7130156666666666  0.4031835  1.0000
  O   O546      1.0  0.76109  0.9536509999999998  0.4031835  1.0000
  O   O547      1.0  0.63891  0.9536509999999998  0.4865168333333333  1.0000
  O   O548      1.0  0.63891  0.7130156666666666  0.4865168333333333  1.0000
  O   O549      1.0  0.66109  0.8796823333333332  0.4031835  1.0000
  O   O550      1.0  0.66109  0.7869843333333332  0.4031835  1.0000
  O   O551      1.0  0.7389100000000001  0.7869843333333332  0.4865168333333333  1.0000
  O   O552      1.0  0.7389100000000001  0.8796823333333332  0.4865168333333333  1.0000
  Li  Li553     1.0  0.7318929  0.8885571666666665  0.5835926666666665  1.0000
  Li  Li554     1.0  0.7318929  0.7781094999999999  0.5835926666666665  1.0000
  Li  Li555     1.0  0.6681071000000001  0.7781094999999999  0.5002593333333333  1.0000
  Li  Li556     1.0  0.6681071000000001  0.8885571666666665  0.5002593333333333  1.0000
  Li  Li557     1.0  0.6318929  0.7218904999999999  0.5835926666666665  1.0000
  Li  Li558     1.0  0.6318929  0.9447761666666666  0.5835926666666665  1.0000
  Li  Li559     1.0  0.7681070999999999  0.9447761666666666  0.5002593333333333  1.0000
  Li  Li560     1.0  0.7681070999999999  0.7218904999999999  0.5002593333333333  1.0000
  P   P277      1.0  0.73075  0.6666666666666666  0.5830851666666667  1.0000
  P   P278      1.0  0.66925  0.6666666666666666  0.6664185  1.0000
  P   P279      1.0  0.63075  0.8333333333333331  0.5830851666666667  1.0000
  P   P280      1.0  0.7692499999999999  0.8333333333333331  0.6664185  1.0000
  N   N277      1.0  0.6774  0.6666666666666666  0.5568626666666666  1.0000
  N   N278      1.0  0.7226  0.6666666666666666  0.6401959999999999  1.0000
  N   N279      1.0  0.7774000000000001  0.8333333333333331  0.5568626666666666  1.0000
  N   N280      1.0  0.6225999999999999  0.8333333333333331  0.6401959999999999  1.0000
  O   O553      1.0  0.76109  0.7130156666666666  0.5698501666666667  1.0000
  O   O554      1.0  0.76109  0.9536509999999998  0.5698501666666667  1.0000
  O   O555      1.0  0.63891  0.9536509999999998  0.6531834999999999  1.0000
  O   O556      1.0  0.63891  0.7130156666666666  0.6531834999999999  1.0000
  O   O557      1.0  0.66109  0.8796823333333332  0.5698501666666667  1.0000
  O   O558      1.0  0.66109  0.7869843333333332  0.5698501666666667  1.0000
  O   O559      1.0  0.7389100000000001  0.7869843333333332  0.6531834999999999  1.0000
  O   O560      1.0  0.7389100000000001  0.8796823333333332  0.6531834999999999  1.0000
  Li  Li561     1.0  0.7318929  0.8885571666666665  0.7502593333333332  1.0000
  Li  Li562     1.0  0.7318929  0.7781094999999999  0.7502593333333332  1.0000
  Li  Li563     1.0  0.6681071000000001  0.7781094999999999  0.666926  1.0000
  Li  Li564     1.0  0.6681071000000001  0.8885571666666665  0.666926  1.0000
  Li  Li565     1.0  0.6318929  0.7218904999999999  0.7502593333333332  1.0000
  Li  Li566     1.0  0.6318929  0.9447761666666666  0.7502593333333332  1.0000
  Li  Li567     1.0  0.7681070999999999  0.9447761666666666  0.666926  1.0000
  Li  Li568     1.0  0.7681070999999999  0.7218904999999999  0.666926  1.0000
  P   P281      1.0  0.73075  0.6666666666666666  0.7497518333333333  1.0000
  P   P282      1.0  0.66925  0.6666666666666666  0.8330851666666667  1.0000
  P   P283      1.0  0.63075  0.8333333333333331  0.7497518333333333  1.0000
  P   P284      1.0  0.7692499999999999  0.8333333333333331  0.8330851666666667  1.0000
  N   N281      1.0  0.6774  0.6666666666666666  0.7235293333333334  1.0000
  N   N282      1.0  0.7226  0.6666666666666666  0.8068626666666665  1.0000
  N   N283      1.0  0.7774000000000001  0.8333333333333331  0.7235293333333334  1.0000
  N   N284      1.0  0.6225999999999999  0.8333333333333331  0.8068626666666665  1.0000
  O   O561      1.0  0.76109  0.7130156666666666  0.7365168333333333  1.0000
  O   O562      1.0  0.76109  0.9536509999999998  0.7365168333333333  1.0000
  O   O563      1.0  0.63891  0.9536509999999998  0.8198501666666667  1.0000
  O   O564      1.0  0.63891  0.7130156666666666  0.8198501666666667  1.0000
  O   O565      1.0  0.66109  0.8796823333333332  0.7365168333333333  1.0000
  O   O566      1.0  0.66109  0.7869843333333332  0.7365168333333333  1.0000
  O   O567      1.0  0.7389100000000001  0.7869843333333332  0.8198501666666667  1.0000
  O   O568      1.0  0.7389100000000001  0.8796823333333332  0.8198501666666667  1.0000
  Li  Li569     1.0  0.7318929  0.8885571666666665  0.9169259999999998  1.0000
  Li  Li570     1.0  0.7318929  0.7781094999999999  0.9169259999999998  1.0000
  Li  Li571     1.0  0.6681071000000001  0.7781094999999999  0.8335926666666665  1.0000
  Li  Li572     1.0  0.6681071000000001  0.8885571666666665  0.8335926666666665  1.0000
  Li  Li573     1.0  0.6318929  0.7218904999999999  0.9169259999999998  1.0000
  Li  Li574     1.0  0.6318929  0.9447761666666666  0.9169259999999998  1.0000
  Li  Li575     1.0  0.7681070999999999  0.9447761666666666  0.8335926666666665  1.0000
  Li  Li576     1.0  0.7681070999999999  0.7218904999999999  0.8335926666666665  1.0000
  P   P285      1.0  0.73075  0.6666666666666666  0.9164184999999998  1.0000
  P   P286      1.0  0.66925  0.6666666666666666  0.9997518333333333  1.0000
  P   P287      1.0  0.63075  0.8333333333333331  0.9164184999999998  1.0000
  P   P288      1.0  0.7692499999999999  0.8333333333333331  0.9997518333333333  1.0000
  N   N285      1.0  0.6774  0.6666666666666666  0.8901959999999999  1.0000
  N   N286      1.0  0.7226  0.6666666666666666  0.9735293333333331  1.0000
  N   N287      1.0  0.7774000000000001  0.8333333333333331  0.8901959999999999  1.0000
  N   N288      1.0  0.6225999999999999  0.8333333333333331  0.9735293333333331  1.0000
  O   O569      1.0  0.76109  0.7130156666666666  0.9031834999999999  1.0000
  O   O570      1.0  0.76109  0.9536509999999998  0.9031834999999999  1.0000
  O   O571      1.0  0.63891  0.9536509999999998  0.9865168333333332  1.0000
  O   O572      1.0  0.63891  0.7130156666666666  0.9865168333333332  1.0000
  O   O573      1.0  0.66109  0.8796823333333332  0.9031834999999999  1.0000
  O   O574      1.0  0.66109  0.7869843333333332  0.9031834999999999  1.0000
  O   O575      1.0  0.7389100000000001  0.7869843333333332  0.9865168333333332  1.0000
  O   O576      1.0  0.7389100000000001  0.8796823333333332  0.9865168333333332  1.0000
  Li  Li577     1.0  0.9318928999999999  0.22189049999999996  0.08359266666666666  1.0000
  Li  Li578     1.0  0.9318928999999999  0.11144283333333331  0.08359266666666666  1.0000
  Li  Li579     1.0  0.8681071  0.11144283333333331  0.0002593333333333333  1.0000
  Li  Li580     1.0  0.8681071  0.22189049999999996  0.0002593333333333333  1.0000
  Li  Li581     1.0  0.8318929  0.055223833333333326  0.08359266666666666  1.0000
  Li  Li582     1.0  0.8318929  0.2781095  0.08359266666666666  1.0000
  Li  Li583     1.0  0.9681071  0.2781095  0.0002593333333333333  1.0000
  Li  Li584     1.0  0.9681071  0.055223833333333326  0.0002593333333333333  1.0000
  P   P289      1.0  0.93075  0.0  0.08308516666666665  1.0000
  P   P290      1.0  0.86925  0.0  0.1664185  1.0000
  P   P291      1.0  0.83075  0.16666666666666666  0.08308516666666665  1.0000
  P   P292      1.0  0.96925  0.16666666666666666  0.1664185  1.0000
  N   N289      1.0  0.8774  0.0  0.05686266666666666  1.0000
  N   N290      1.0  0.9226  0.0  0.14019599999999996  1.0000
  N   N291      1.0  0.9773999999999999  0.16666666666666666  0.05686266666666666  1.0000
  N   N292      1.0  0.8225999999999999  0.16666666666666666  0.14019599999999996  1.0000
  O   O577      1.0  0.96109  0.046348999999999994  0.06985016666666664  1.0000
  O   O578      1.0  0.96109  0.2869843333333333  0.06985016666666664  1.0000
  O   O579      1.0  0.8389099999999999  0.2869843333333333  0.15318349999999997  1.0000
  O   O580      1.0  0.8389099999999999  0.046348999999999994  0.15318349999999997  1.0000
  O   O581      1.0  0.8610899999999999  0.21301566666666666  0.06985016666666664  1.0000
  O   O582      1.0  0.8610899999999999  0.12031766666666666  0.06985016666666664  1.0000
  O   O583      1.0  0.93891  0.12031766666666666  0.15318349999999997  1.0000
  O   O584      1.0  0.93891  0.21301566666666666  0.15318349999999997  1.0000
  Li  Li585     1.0  0.9318928999999999  0.22189049999999996  0.2502593333333333  1.0000
  Li  Li586     1.0  0.9318928999999999  0.11144283333333331  0.2502593333333333  1.0000
  Li  Li587     1.0  0.8681071  0.11144283333333331  0.166926  1.0000
  Li  Li588     1.0  0.8681071  0.22189049999999996  0.166926  1.0000
  Li  Li589     1.0  0.8318929  0.055223833333333326  0.2502593333333333  1.0000
  Li  Li590     1.0  0.8318929  0.2781095  0.2502593333333333  1.0000
  Li  Li591     1.0  0.9681071  0.2781095  0.166926  1.0000
  Li  Li592     1.0  0.9681071  0.055223833333333326  0.166926  1.0000
  P   P293      1.0  0.93075  0.0  0.2497518333333333  1.0000
  P   P294      1.0  0.86925  0.0  0.33308516666666665  1.0000
  P   P295      1.0  0.83075  0.16666666666666666  0.2497518333333333  1.0000
  P   P296      1.0  0.96925  0.16666666666666666  0.33308516666666665  1.0000
  N   N293      1.0  0.8774  0.0  0.22352933333333333  1.0000
  N   N294      1.0  0.9226  0.0  0.3068626666666666  1.0000
  N   N295      1.0  0.9773999999999999  0.16666666666666666  0.22352933333333333  1.0000
  N   N296      1.0  0.8225999999999999  0.16666666666666666  0.3068626666666666  1.0000
  O   O585      1.0  0.96109  0.046348999999999994  0.2365168333333333  1.0000
  O   O586      1.0  0.96109  0.2869843333333333  0.2365168333333333  1.0000
  O   O587      1.0  0.8389099999999999  0.2869843333333333  0.31985016666666666  1.0000
  O   O588      1.0  0.8389099999999999  0.046348999999999994  0.31985016666666666  1.0000
  O   O589      1.0  0.8610899999999999  0.21301566666666666  0.2365168333333333  1.0000
  O   O590      1.0  0.8610899999999999  0.12031766666666666  0.2365168333333333  1.0000
  O   O591      1.0  0.93891  0.12031766666666666  0.31985016666666666  1.0000
  O   O592      1.0  0.93891  0.21301566666666666  0.31985016666666666  1.0000
  Li  Li593     1.0  0.9318928999999999  0.22189049999999996  0.41692599999999996  1.0000
  Li  Li594     1.0  0.9318928999999999  0.11144283333333331  0.41692599999999996  1.0000
  Li  Li595     1.0  0.8681071  0.11144283333333331  0.3335926666666666  1.0000
  Li  Li596     1.0  0.8681071  0.22189049999999996  0.3335926666666666  1.0000
  Li  Li597     1.0  0.8318929  0.055223833333333326  0.41692599999999996  1.0000
  Li  Li598     1.0  0.8318929  0.2781095  0.41692599999999996  1.0000
  Li  Li599     1.0  0.9681071  0.2781095  0.3335926666666666  1.0000
  Li  Li600     1.0  0.9681071  0.055223833333333326  0.3335926666666666  1.0000
  P   P297      1.0  0.93075  0.0  0.41641849999999997  1.0000
  P   P298      1.0  0.86925  0.0  0.49975183333333323  1.0000
  P   P299      1.0  0.83075  0.16666666666666666  0.41641849999999997  1.0000
  P   P300      1.0  0.96925  0.16666666666666666  0.49975183333333323  1.0000
  N   N297      1.0  0.8774  0.0  0.39019599999999993  1.0000
  N   N298      1.0  0.9226  0.0  0.47352933333333325  1.0000
  N   N299      1.0  0.9773999999999999  0.16666666666666666  0.39019599999999993  1.0000
  N   N300      1.0  0.8225999999999999  0.16666666666666666  0.47352933333333325  1.0000
  O   O593      1.0  0.96109  0.046348999999999994  0.4031835  1.0000
  O   O594      1.0  0.96109  0.2869843333333333  0.4031835  1.0000
  O   O595      1.0  0.8389099999999999  0.2869843333333333  0.4865168333333333  1.0000
  O   O596      1.0  0.8389099999999999  0.046348999999999994  0.4865168333333333  1.0000
  O   O597      1.0  0.8610899999999999  0.21301566666666666  0.4031835  1.0000
  O   O598      1.0  0.8610899999999999  0.12031766666666666  0.4031835  1.0000
  O   O599      1.0  0.93891  0.12031766666666666  0.4865168333333333  1.0000
  O   O600      1.0  0.93891  0.21301566666666666  0.4865168333333333  1.0000
  Li  Li601     1.0  0.9318928999999999  0.22189049999999996  0.5835926666666665  1.0000
  Li  Li602     1.0  0.9318928999999999  0.11144283333333331  0.5835926666666665  1.0000
  Li  Li603     1.0  0.8681071  0.11144283333333331  0.5002593333333333  1.0000
  Li  Li604     1.0  0.8681071  0.22189049999999996  0.5002593333333333  1.0000
  Li  Li605     1.0  0.8318929  0.055223833333333326  0.5835926666666665  1.0000
  Li  Li606     1.0  0.8318929  0.2781095  0.5835926666666665  1.0000
  Li  Li607     1.0  0.9681071  0.2781095  0.5002593333333333  1.0000
  Li  Li608     1.0  0.9681071  0.055223833333333326  0.5002593333333333  1.0000
  P   P301      1.0  0.93075  0.0  0.5830851666666667  1.0000
  P   P302      1.0  0.86925  0.0  0.6664185  1.0000
  P   P303      1.0  0.83075  0.16666666666666666  0.5830851666666667  1.0000
  P   P304      1.0  0.96925  0.16666666666666666  0.6664185  1.0000
  N   N301      1.0  0.8774  0.0  0.5568626666666666  1.0000
  N   N302      1.0  0.9226  0.0  0.6401959999999999  1.0000
  N   N303      1.0  0.9773999999999999  0.16666666666666666  0.5568626666666666  1.0000
  N   N304      1.0  0.8225999999999999  0.16666666666666666  0.6401959999999999  1.0000
  O   O601      1.0  0.96109  0.046348999999999994  0.5698501666666667  1.0000
  O   O602      1.0  0.96109  0.2869843333333333  0.5698501666666667  1.0000
  O   O603      1.0  0.8389099999999999  0.2869843333333333  0.6531834999999999  1.0000
  O   O604      1.0  0.8389099999999999  0.046348999999999994  0.6531834999999999  1.0000
  O   O605      1.0  0.8610899999999999  0.21301566666666666  0.5698501666666667  1.0000
  O   O606      1.0  0.8610899999999999  0.12031766666666666  0.5698501666666667  1.0000
  O   O607      1.0  0.93891  0.12031766666666666  0.6531834999999999  1.0000
  O   O608      1.0  0.93891  0.21301566666666666  0.6531834999999999  1.0000
  Li  Li609     1.0  0.9318928999999999  0.22189049999999996  0.7502593333333332  1.0000
  Li  Li610     1.0  0.9318928999999999  0.11144283333333331  0.7502593333333332  1.0000
  Li  Li611     1.0  0.8681071  0.11144283333333331  0.666926  1.0000
  Li  Li612     1.0  0.8681071  0.22189049999999996  0.666926  1.0000
  Li  Li613     1.0  0.8318929  0.055223833333333326  0.7502593333333332  1.0000
  Li  Li614     1.0  0.8318929  0.2781095  0.7502593333333332  1.0000
  Li  Li615     1.0  0.9681071  0.2781095  0.666926  1.0000
  Li  Li616     1.0  0.9681071  0.055223833333333326  0.666926  1.0000
  P   P305      1.0  0.93075  0.0  0.7497518333333333  1.0000
  P   P306      1.0  0.86925  0.0  0.8330851666666667  1.0000
  P   P307      1.0  0.83075  0.16666666666666666  0.7497518333333333  1.0000
  P   P308      1.0  0.96925  0.16666666666666666  0.8330851666666667  1.0000
  N   N305      1.0  0.8774  0.0  0.7235293333333334  1.0000
  N   N306      1.0  0.9226  0.0  0.8068626666666665  1.0000
  N   N307      1.0  0.9773999999999999  0.16666666666666666  0.7235293333333334  1.0000
  N   N308      1.0  0.8225999999999999  0.16666666666666666  0.8068626666666665  1.0000
  O   O609      1.0  0.96109  0.046348999999999994  0.7365168333333333  1.0000
  O   O610      1.0  0.96109  0.2869843333333333  0.7365168333333333  1.0000
  O   O611      1.0  0.8389099999999999  0.2869843333333333  0.8198501666666667  1.0000
  O   O612      1.0  0.8389099999999999  0.046348999999999994  0.8198501666666667  1.0000
  O   O613      1.0  0.8610899999999999  0.21301566666666666  0.7365168333333333  1.0000
  O   O614      1.0  0.8610899999999999  0.12031766666666666  0.7365168333333333  1.0000
  O   O615      1.0  0.93891  0.12031766666666666  0.8198501666666667  1.0000
  O   O616      1.0  0.93891  0.21301566666666666  0.8198501666666667  1.0000
  Li  Li617     1.0  0.9318928999999999  0.22189049999999996  0.9169259999999998  1.0000
  Li  Li618     1.0  0.9318928999999999  0.11144283333333331  0.9169259999999998  1.0000
  Li  Li619     1.0  0.8681071  0.11144283333333331  0.8335926666666665  1.0000
  Li  Li620     1.0  0.8681071  0.22189049999999996  0.8335926666666665  1.0000
  Li  Li621     1.0  0.8318929  0.055223833333333326  0.9169259999999998  1.0000
  Li  Li622     1.0  0.8318929  0.2781095  0.9169259999999998  1.0000
  Li  Li623     1.0  0.9681071  0.2781095  0.8335926666666665  1.0000
  Li  Li624     1.0  0.9681071  0.055223833333333326  0.8335926666666665  1.0000
  P   P309      1.0  0.93075  0.0  0.9164184999999998  1.0000
  P   P310      1.0  0.86925  0.0  0.9997518333333333  1.0000
  P   P311      1.0  0.83075  0.16666666666666666  0.9164184999999998  1.0000
  P   P312      1.0  0.96925  0.16666666666666666  0.9997518333333333  1.0000
  N   N309      1.0  0.8774  0.0  0.8901959999999999  1.0000
  N   N310      1.0  0.9226  0.0  0.9735293333333331  1.0000
  N   N311      1.0  0.9773999999999999  0.16666666666666666  0.8901959999999999  1.0000
  N   N312      1.0  0.8225999999999999  0.16666666666666666  0.9735293333333331  1.0000
  O   O617      1.0  0.96109  0.046348999999999994  0.9031834999999999  1.0000
  O   O618      1.0  0.96109  0.2869843333333333  0.9031834999999999  1.0000
  O   O619      1.0  0.8389099999999999  0.2869843333333333  0.9865168333333332  1.0000
  O   O620      1.0  0.8389099999999999  0.046348999999999994  0.9865168333333332  1.0000
  O   O621      1.0  0.8610899999999999  0.21301566666666666  0.9031834999999999  1.0000
  O   O622      1.0  0.8610899999999999  0.12031766666666666  0.9031834999999999  1.0000
  O   O623      1.0  0.93891  0.12031766666666666  0.9865168333333332  1.0000
  O   O624      1.0  0.93891  0.21301566666666666  0.9865168333333332  1.0000
  Li  Li625     1.0  0.9318928999999999  0.5552238333333332  0.08359266666666666  1.0000
  Li  Li626     1.0  0.9318928999999999  0.44477616666666664  0.08359266666666666  1.0000
  Li  Li627     1.0  0.8681071  0.44477616666666664  0.0002593333333333333  1.0000
  Li  Li628     1.0  0.8681071  0.5552238333333332  0.0002593333333333333  1.0000
  Li  Li629     1.0  0.8318929  0.3885571666666666  0.08359266666666666  1.0000
  Li  Li630     1.0  0.8318929  0.6114428333333333  0.08359266666666666  1.0000
  Li  Li631     1.0  0.9681071  0.6114428333333333  0.0002593333333333333  1.0000
  Li  Li632     1.0  0.9681071  0.3885571666666666  0.0002593333333333333  1.0000
  P   P313      1.0  0.93075  0.3333333333333333  0.08308516666666665  1.0000
  P   P314      1.0  0.86925  0.3333333333333333  0.1664185  1.0000
  P   P315      1.0  0.83075  0.49999999999999994  0.08308516666666665  1.0000
  P   P316      1.0  0.96925  0.49999999999999994  0.1664185  1.0000
  N   N313      1.0  0.8774  0.3333333333333333  0.05686266666666666  1.0000
  N   N314      1.0  0.9226  0.3333333333333333  0.14019599999999996  1.0000
  N   N315      1.0  0.9773999999999999  0.49999999999999994  0.05686266666666666  1.0000
  N   N316      1.0  0.8225999999999999  0.49999999999999994  0.14019599999999996  1.0000
  O   O625      1.0  0.96109  0.3796823333333333  0.06985016666666664  1.0000
  O   O626      1.0  0.96109  0.6203176666666665  0.06985016666666664  1.0000
  O   O627      1.0  0.8389099999999999  0.6203176666666665  0.15318349999999997  1.0000
  O   O628      1.0  0.8389099999999999  0.3796823333333333  0.15318349999999997  1.0000
  O   O629      1.0  0.8610899999999999  0.546349  0.06985016666666664  1.0000
  O   O630      1.0  0.8610899999999999  0.45365099999999997  0.06985016666666664  1.0000
  O   O631      1.0  0.93891  0.45365099999999997  0.15318349999999997  1.0000
  O   O632      1.0  0.93891  0.546349  0.15318349999999997  1.0000
  Li  Li633     1.0  0.9318928999999999  0.5552238333333332  0.2502593333333333  1.0000
  Li  Li634     1.0  0.9318928999999999  0.44477616666666664  0.2502593333333333  1.0000
  Li  Li635     1.0  0.8681071  0.44477616666666664  0.166926  1.0000
  Li  Li636     1.0  0.8681071  0.5552238333333332  0.166926  1.0000
  Li  Li637     1.0  0.8318929  0.3885571666666666  0.2502593333333333  1.0000
  Li  Li638     1.0  0.8318929  0.6114428333333333  0.2502593333333333  1.0000
  Li  Li639     1.0  0.9681071  0.6114428333333333  0.166926  1.0000
  Li  Li640     1.0  0.9681071  0.3885571666666666  0.166926  1.0000
  P   P317      1.0  0.93075  0.3333333333333333  0.2497518333333333  1.0000
  P   P318      1.0  0.86925  0.3333333333333333  0.33308516666666665  1.0000
  P   P319      1.0  0.83075  0.49999999999999994  0.2497518333333333  1.0000
  P   P320      1.0  0.96925  0.49999999999999994  0.33308516666666665  1.0000
  N   N317      1.0  0.8774  0.3333333333333333  0.22352933333333333  1.0000
  N   N318      1.0  0.9226  0.3333333333333333  0.3068626666666666  1.0000
  N   N319      1.0  0.9773999999999999  0.49999999999999994  0.22352933333333333  1.0000
  N   N320      1.0  0.8225999999999999  0.49999999999999994  0.3068626666666666  1.0000
  O   O633      1.0  0.96109  0.3796823333333333  0.2365168333333333  1.0000
  O   O634      1.0  0.96109  0.6203176666666665  0.2365168333333333  1.0000
  O   O635      1.0  0.8389099999999999  0.6203176666666665  0.31985016666666666  1.0000
  O   O636      1.0  0.8389099999999999  0.3796823333333333  0.31985016666666666  1.0000
  O   O637      1.0  0.8610899999999999  0.546349  0.2365168333333333  1.0000
  O   O638      1.0  0.8610899999999999  0.45365099999999997  0.2365168333333333  1.0000
  O   O639      1.0  0.93891  0.45365099999999997  0.31985016666666666  1.0000
  O   O640      1.0  0.93891  0.546349  0.31985016666666666  1.0000
  Li  Li641     1.0  0.9318928999999999  0.5552238333333332  0.41692599999999996  1.0000
  Li  Li642     1.0  0.9318928999999999  0.44477616666666664  0.41692599999999996  1.0000
  Li  Li643     1.0  0.8681071  0.44477616666666664  0.3335926666666666  1.0000
  Li  Li644     1.0  0.8681071  0.5552238333333332  0.3335926666666666  1.0000
  Li  Li645     1.0  0.8318929  0.3885571666666666  0.41692599999999996  1.0000
  Li  Li646     1.0  0.8318929  0.6114428333333333  0.41692599999999996  1.0000
  Li  Li647     1.0  0.9681071  0.6114428333333333  0.3335926666666666  1.0000
  Li  Li648     1.0  0.9681071  0.3885571666666666  0.3335926666666666  1.0000
  P   P321      1.0  0.93075  0.3333333333333333  0.41641849999999997  1.0000
  P   P322      1.0  0.86925  0.3333333333333333  0.49975183333333323  1.0000
  P   P323      1.0  0.83075  0.49999999999999994  0.41641849999999997  1.0000
  P   P324      1.0  0.96925  0.49999999999999994  0.49975183333333323  1.0000
  N   N321      1.0  0.8774  0.3333333333333333  0.39019599999999993  1.0000
  N   N322      1.0  0.9226  0.3333333333333333  0.47352933333333325  1.0000
  N   N323      1.0  0.9773999999999999  0.49999999999999994  0.39019599999999993  1.0000
  N   N324      1.0  0.8225999999999999  0.49999999999999994  0.47352933333333325  1.0000
  O   O641      1.0  0.96109  0.3796823333333333  0.4031835  1.0000
  O   O642      1.0  0.96109  0.6203176666666665  0.4031835  1.0000
  O   O643      1.0  0.8389099999999999  0.6203176666666665  0.4865168333333333  1.0000
  O   O644      1.0  0.8389099999999999  0.3796823333333333  0.4865168333333333  1.0000
  O   O645      1.0  0.8610899999999999  0.546349  0.4031835  1.0000
  O   O646      1.0  0.8610899999999999  0.45365099999999997  0.4031835  1.0000
  O   O647      1.0  0.93891  0.45365099999999997  0.4865168333333333  1.0000
  O   O648      1.0  0.93891  0.546349  0.4865168333333333  1.0000
  Li  Li649     1.0  0.9318928999999999  0.5552238333333332  0.5835926666666665  1.0000
  Li  Li650     1.0  0.9318928999999999  0.44477616666666664  0.5835926666666665  1.0000
  Li  Li651     1.0  0.8681071  0.44477616666666664  0.5002593333333333  1.0000
  Li  Li652     1.0  0.8681071  0.5552238333333332  0.5002593333333333  1.0000
  Li  Li653     1.0  0.8318929  0.3885571666666666  0.5835926666666665  1.0000
  Li  Li654     1.0  0.8318929  0.6114428333333333  0.5835926666666665  1.0000
  Li  Li655     1.0  0.9681071  0.6114428333333333  0.5002593333333333  1.0000
  Li  Li656     1.0  0.9681071  0.3885571666666666  0.5002593333333333  1.0000
  P   P325      1.0  0.93075  0.3333333333333333  0.5830851666666667  1.0000
  P   P326      1.0  0.86925  0.3333333333333333  0.6664185  1.0000
  P   P327      1.0  0.83075  0.49999999999999994  0.5830851666666667  1.0000
  P   P328      1.0  0.96925  0.49999999999999994  0.6664185  1.0000
  N   N325      1.0  0.8774  0.3333333333333333  0.5568626666666666  1.0000
  N   N326      1.0  0.9226  0.3333333333333333  0.6401959999999999  1.0000
  N   N327      1.0  0.9773999999999999  0.49999999999999994  0.5568626666666666  1.0000
  N   N328      1.0  0.8225999999999999  0.49999999999999994  0.6401959999999999  1.0000
  O   O649      1.0  0.96109  0.3796823333333333  0.5698501666666667  1.0000
  O   O650      1.0  0.96109  0.6203176666666665  0.5698501666666667  1.0000
  O   O651      1.0  0.8389099999999999  0.6203176666666665  0.6531834999999999  1.0000
  O   O652      1.0  0.8389099999999999  0.3796823333333333  0.6531834999999999  1.0000
  O   O653      1.0  0.8610899999999999  0.546349  0.5698501666666667  1.0000
  O   O654      1.0  0.8610899999999999  0.45365099999999997  0.5698501666666667  1.0000
  O   O655      1.0  0.93891  0.45365099999999997  0.6531834999999999  1.0000
  O   O656      1.0  0.93891  0.546349  0.6531834999999999  1.0000
  Li  Li657     1.0  0.9318928999999999  0.5552238333333332  0.7502593333333332  1.0000
  Li  Li658     1.0  0.9318928999999999  0.44477616666666664  0.7502593333333332  1.0000
  Li  Li659     1.0  0.8681071  0.44477616666666664  0.666926  1.0000
  Li  Li660     1.0  0.8681071  0.5552238333333332  0.666926  1.0000
  Li  Li661     1.0  0.8318929  0.3885571666666666  0.7502593333333332  1.0000
  Li  Li662     1.0  0.8318929  0.6114428333333333  0.7502593333333332  1.0000
  Li  Li663     1.0  0.9681071  0.6114428333333333  0.666926  1.0000
  Li  Li664     1.0  0.9681071  0.3885571666666666  0.666926  1.0000
  P   P329      1.0  0.93075  0.3333333333333333  0.7497518333333333  1.0000
  P   P330      1.0  0.86925  0.3333333333333333  0.8330851666666667  1.0000
  P   P331      1.0  0.83075  0.49999999999999994  0.7497518333333333  1.0000
  P   P332      1.0  0.96925  0.49999999999999994  0.8330851666666667  1.0000
  N   N329      1.0  0.8774  0.3333333333333333  0.7235293333333334  1.0000
  N   N330      1.0  0.9226  0.3333333333333333  0.8068626666666665  1.0000
  N   N331      1.0  0.9773999999999999  0.49999999999999994  0.7235293333333334  1.0000
  N   N332      1.0  0.8225999999999999  0.49999999999999994  0.8068626666666665  1.0000
  O   O657      1.0  0.96109  0.3796823333333333  0.7365168333333333  1.0000
  O   O658      1.0  0.96109  0.6203176666666665  0.7365168333333333  1.0000
  O   O659      1.0  0.8389099999999999  0.6203176666666665  0.8198501666666667  1.0000
  O   O660      1.0  0.8389099999999999  0.3796823333333333  0.8198501666666667  1.0000
  O   O661      1.0  0.8610899999999999  0.546349  0.7365168333333333  1.0000
  O   O662      1.0  0.8610899999999999  0.45365099999999997  0.7365168333333333  1.0000
  O   O663      1.0  0.93891  0.45365099999999997  0.8198501666666667  1.0000
  O   O664      1.0  0.93891  0.546349  0.8198501666666667  1.0000
  Li  Li665     1.0  0.9318928999999999  0.5552238333333332  0.9169259999999998  1.0000
  Li  Li666     1.0  0.9318928999999999  0.44477616666666664  0.9169259999999998  1.0000
  Li  Li667     1.0  0.8681071  0.44477616666666664  0.8335926666666665  1.0000
  Li  Li668     1.0  0.8681071  0.5552238333333332  0.8335926666666665  1.0000
  Li  Li669     1.0  0.8318929  0.3885571666666666  0.9169259999999998  1.0000
  Li  Li670     1.0  0.8318929  0.6114428333333333  0.9169259999999998  1.0000
  Li  Li671     1.0  0.9681071  0.6114428333333333  0.8335926666666665  1.0000
  Li  Li672     1.0  0.9681071  0.3885571666666666  0.8335926666666665  1.0000
  P   P333      1.0  0.93075  0.3333333333333333  0.9164184999999998  1.0000
  P   P334      1.0  0.86925  0.3333333333333333  0.9997518333333333  1.0000
  P   P335      1.0  0.83075  0.49999999999999994  0.9164184999999998  1.0000
  P   P336      1.0  0.96925  0.49999999999999994  0.9997518333333333  1.0000
  N   N333      1.0  0.8774  0.3333333333333333  0.8901959999999999  1.0000
  N   N334      1.0  0.9226  0.3333333333333333  0.9735293333333331  1.0000
  N   N335      1.0  0.9773999999999999  0.49999999999999994  0.8901959999999999  1.0000
  N   N336      1.0  0.8225999999999999  0.49999999999999994  0.9735293333333331  1.0000
  O   O665      1.0  0.96109  0.3796823333333333  0.9031834999999999  1.0000
  O   O666      1.0  0.96109  0.6203176666666665  0.9031834999999999  1.0000
  O   O667      1.0  0.8389099999999999  0.6203176666666665  0.9865168333333332  1.0000
  O   O668      1.0  0.8389099999999999  0.3796823333333333  0.9865168333333332  1.0000
  O   O669      1.0  0.8610899999999999  0.546349  0.9031834999999999  1.0000
  O   O670      1.0  0.8610899999999999  0.45365099999999997  0.9031834999999999  1.0000
  O   O671      1.0  0.93891  0.45365099999999997  0.9865168333333332  1.0000
  O   O672      1.0  0.93891  0.546349  0.9865168333333332  1.0000
  Li  Li673     1.0  0.9318928999999999  0.8885571666666665  0.08359266666666666  1.0000
  Li  Li674     1.0  0.9318928999999999  0.7781094999999999  0.08359266666666666  1.0000
  Li  Li675     1.0  0.8681071  0.7781094999999999  0.0002593333333333333  1.0000
  Li  Li676     1.0  0.8681071  0.8885571666666665  0.0002593333333333333  1.0000
  Li  Li677     1.0  0.8318929  0.7218904999999999  0.08359266666666666  1.0000
  Li  Li678     1.0  0.8318929  0.9447761666666666  0.08359266666666666  1.0000
  Li  Li679     1.0  0.9681071  0.9447761666666666  0.0002593333333333333  1.0000
  Li  Li680     1.0  0.9681071  0.7218904999999999  0.0002593333333333333  1.0000
  P   P337      1.0  0.93075  0.6666666666666666  0.08308516666666665  1.0000
  P   P338      1.0  0.86925  0.6666666666666666  0.1664185  1.0000
  P   P339      1.0  0.83075  0.8333333333333331  0.08308516666666665  1.0000
  P   P340      1.0  0.96925  0.8333333333333331  0.1664185  1.0000
  N   N337      1.0  0.8774  0.6666666666666666  0.05686266666666666  1.0000
  N   N338      1.0  0.9226  0.6666666666666666  0.14019599999999996  1.0000
  N   N339      1.0  0.9773999999999999  0.8333333333333331  0.05686266666666666  1.0000
  N   N340      1.0  0.8225999999999999  0.8333333333333331  0.14019599999999996  1.0000
  O   O673      1.0  0.96109  0.7130156666666666  0.06985016666666664  1.0000
  O   O674      1.0  0.96109  0.9536509999999998  0.06985016666666664  1.0000
  O   O675      1.0  0.8389099999999999  0.9536509999999998  0.15318349999999997  1.0000
  O   O676      1.0  0.8389099999999999  0.7130156666666666  0.15318349999999997  1.0000
  O   O677      1.0  0.8610899999999999  0.8796823333333332  0.06985016666666664  1.0000
  O   O678      1.0  0.8610899999999999  0.7869843333333332  0.06985016666666664  1.0000
  O   O679      1.0  0.93891  0.7869843333333332  0.15318349999999997  1.0000
  O   O680      1.0  0.93891  0.8796823333333332  0.15318349999999997  1.0000
  Li  Li681     1.0  0.9318928999999999  0.8885571666666665  0.2502593333333333  1.0000
  Li  Li682     1.0  0.9318928999999999  0.7781094999999999  0.2502593333333333  1.0000
  Li  Li683     1.0  0.8681071  0.7781094999999999  0.166926  1.0000
  Li  Li684     1.0  0.8681071  0.8885571666666665  0.166926  1.0000
  Li  Li685     1.0  0.8318929  0.7218904999999999  0.2502593333333333  1.0000
  Li  Li686     1.0  0.8318929  0.9447761666666666  0.2502593333333333  1.0000
  Li  Li687     1.0  0.9681071  0.9447761666666666  0.166926  1.0000
  Li  Li688     1.0  0.9681071  0.7218904999999999  0.166926  1.0000
  P   P341      1.0  0.93075  0.6666666666666666  0.2497518333333333  1.0000
  P   P342      1.0  0.86925  0.6666666666666666  0.33308516666666665  1.0000
  P   P343      1.0  0.83075  0.8333333333333331  0.2497518333333333  1.0000
  P   P344      1.0  0.96925  0.8333333333333331  0.33308516666666665  1.0000
  N   N341      1.0  0.8774  0.6666666666666666  0.22352933333333333  1.0000
  N   N342      1.0  0.9226  0.6666666666666666  0.3068626666666666  1.0000
  N   N343      1.0  0.9773999999999999  0.8333333333333331  0.22352933333333333  1.0000
  N   N344      1.0  0.8225999999999999  0.8333333333333331  0.3068626666666666  1.0000
  O   O681      1.0  0.96109  0.7130156666666666  0.2365168333333333  1.0000
  O   O682      1.0  0.96109  0.9536509999999998  0.2365168333333333  1.0000
  O   O683      1.0  0.8389099999999999  0.9536509999999998  0.31985016666666666  1.0000
  O   O684      1.0  0.8389099999999999  0.7130156666666666  0.31985016666666666  1.0000
  O   O685      1.0  0.8610899999999999  0.8796823333333332  0.2365168333333333  1.0000
  O   O686      1.0  0.8610899999999999  0.7869843333333332  0.2365168333333333  1.0000
  O   O687      1.0  0.93891  0.7869843333333332  0.31985016666666666  1.0000
  O   O688      1.0  0.93891  0.8796823333333332  0.31985016666666666  1.0000
  Li  Li689     1.0  0.9318928999999999  0.8885571666666665  0.41692599999999996  1.0000
  Li  Li690     1.0  0.9318928999999999  0.7781094999999999  0.41692599999999996  1.0000
  Li  Li691     1.0  0.8681071  0.7781094999999999  0.3335926666666666  1.0000
  Li  Li692     1.0  0.8681071  0.8885571666666665  0.3335926666666666  1.0000
  Li  Li693     1.0  0.8318929  0.7218904999999999  0.41692599999999996  1.0000
  Li  Li694     1.0  0.8318929  0.9447761666666666  0.41692599999999996  1.0000
  Li  Li695     1.0  0.9681071  0.9447761666666666  0.3335926666666666  1.0000
  Li  Li696     1.0  0.9681071  0.7218904999999999  0.3335926666666666  1.0000
  P   P345      1.0  0.93075  0.6666666666666666  0.41641849999999997  1.0000
  P   P346      1.0  0.86925  0.6666666666666666  0.49975183333333323  1.0000
  P   P347      1.0  0.83075  0.8333333333333331  0.41641849999999997  1.0000
  P   P348      1.0  0.96925  0.8333333333333331  0.49975183333333323  1.0000
  N   N345      1.0  0.8774  0.6666666666666666  0.39019599999999993  1.0000
  N   N346      1.0  0.9226  0.6666666666666666  0.47352933333333325  1.0000
  N   N347      1.0  0.9773999999999999  0.8333333333333331  0.39019599999999993  1.0000
  N   N348      1.0  0.8225999999999999  0.8333333333333331  0.47352933333333325  1.0000
  O   O689      1.0  0.96109  0.7130156666666666  0.4031835  1.0000
  O   O690      1.0  0.96109  0.9536509999999998  0.4031835  1.0000
  O   O691      1.0  0.8389099999999999  0.9536509999999998  0.4865168333333333  1.0000
  O   O692      1.0  0.8389099999999999  0.7130156666666666  0.4865168333333333  1.0000
  O   O693      1.0  0.8610899999999999  0.8796823333333332  0.4031835  1.0000
  O   O694      1.0  0.8610899999999999  0.7869843333333332  0.4031835  1.0000
  O   O695      1.0  0.93891  0.7869843333333332  0.4865168333333333  1.0000
  O   O696      1.0  0.93891  0.8796823333333332  0.4865168333333333  1.0000
  Li  Li697     1.0  0.9318928999999999  0.8885571666666665  0.5835926666666665  1.0000
  Li  Li698     1.0  0.9318928999999999  0.7781094999999999  0.5835926666666665  1.0000
  Li  Li699     1.0  0.8681071  0.7781094999999999  0.5002593333333333  1.0000
  Li  Li700     1.0  0.8681071  0.8885571666666665  0.5002593333333333  1.0000
  Li  Li701     1.0  0.8318929  0.7218904999999999  0.5835926666666665  1.0000
  Li  Li702     1.0  0.8318929  0.9447761666666666  0.5835926666666665  1.0000
  Li  Li703     1.0  0.9681071  0.9447761666666666  0.5002593333333333  1.0000
  Li  Li704     1.0  0.9681071  0.7218904999999999  0.5002593333333333  1.0000
  P   P349      1.0  0.93075  0.6666666666666666  0.5830851666666667  1.0000
  P   P350      1.0  0.86925  0.6666666666666666  0.6664185  1.0000
  P   P351      1.0  0.83075  0.8333333333333331  0.5830851666666667  1.0000
  P   P352      1.0  0.96925  0.8333333333333331  0.6664185  1.0000
  N   N349      1.0  0.8774  0.6666666666666666  0.5568626666666666  1.0000
  N   N350      1.0  0.9226  0.6666666666666666  0.6401959999999999  1.0000
  N   N351      1.0  0.9773999999999999  0.8333333333333331  0.5568626666666666  1.0000
  N   N352      1.0  0.8225999999999999  0.8333333333333331  0.6401959999999999  1.0000
  O   O697      1.0  0.96109  0.7130156666666666  0.5698501666666667  1.0000
  O   O698      1.0  0.96109  0.9536509999999998  0.5698501666666667  1.0000
  O   O699      1.0  0.8389099999999999  0.9536509999999998  0.6531834999999999  1.0000
  O   O700      1.0  0.8389099999999999  0.7130156666666666  0.6531834999999999  1.0000
  O   O701      1.0  0.8610899999999999  0.8796823333333332  0.5698501666666667  1.0000
  O   O702      1.0  0.8610899999999999  0.7869843333333332  0.5698501666666667  1.0000
  O   O703      1.0  0.93891  0.7869843333333332  0.6531834999999999  1.0000
  O   O704      1.0  0.93891  0.8796823333333332  0.6531834999999999  1.0000
  Li  Li705     1.0  0.9318928999999999  0.8885571666666665  0.7502593333333332  1.0000
  Li  Li706     1.0  0.9318928999999999  0.7781094999999999  0.7502593333333332  1.0000
  Li  Li707     1.0  0.8681071  0.7781094999999999  0.666926  1.0000
  Li  Li708     1.0  0.8681071  0.8885571666666665  0.666926  1.0000
  Li  Li709     1.0  0.8318929  0.7218904999999999  0.7502593333333332  1.0000
  Li  Li710     1.0  0.8318929  0.9447761666666666  0.7502593333333332  1.0000
  Li  Li711     1.0  0.9681071  0.9447761666666666  0.666926  1.0000
  Li  Li712     1.0  0.9681071  0.7218904999999999  0.666926  1.0000
  P   P353      1.0  0.93075  0.6666666666666666  0.7497518333333333  1.0000
  P   P354      1.0  0.86925  0.6666666666666666  0.8330851666666667  1.0000
  P   P355      1.0  0.83075  0.8333333333333331  0.7497518333333333  1.0000
  P   P356      1.0  0.96925  0.8333333333333331  0.8330851666666667  1.0000
  N   N353      1.0  0.8774  0.6666666666666666  0.7235293333333334  1.0000
  N   N354      1.0  0.9226  0.6666666666666666  0.8068626666666665  1.0000
  N   N355      1.0  0.9773999999999999  0.8333333333333331  0.7235293333333334  1.0000
  N   N356      1.0  0.8225999999999999  0.8333333333333331  0.8068626666666665  1.0000
  O   O705      1.0  0.96109  0.7130156666666666  0.7365168333333333  1.0000
  O   O706      1.0  0.96109  0.9536509999999998  0.7365168333333333  1.0000
  O   O707      1.0  0.8389099999999999  0.9536509999999998  0.8198501666666667  1.0000
  O   O708      1.0  0.8389099999999999  0.7130156666666666  0.8198501666666667  1.0000
  O   O709      1.0  0.8610899999999999  0.8796823333333332  0.7365168333333333  1.0000
  O   O710      1.0  0.8610899999999999  0.7869843333333332  0.7365168333333333  1.0000
  O   O711      1.0  0.93891  0.7869843333333332  0.8198501666666667  1.0000
  O   O712      1.0  0.93891  0.8796823333333332  0.8198501666666667  1.0000
  Li  Li713     1.0  0.9318928999999999  0.8885571666666665  0.9169259999999998  1.0000
  Li  Li714     1.0  0.9318928999999999  0.7781094999999999  0.9169259999999998  1.0000
  Li  Li715     1.0  0.8681071  0.7781094999999999  0.8335926666666665  1.0000
  Li  Li716     1.0  0.8681071  0.8885571666666665  0.8335926666666665  1.0000
  Li  Li717     1.0  0.8318929  0.7218904999999999  0.9169259999999998  1.0000
  Li  Li718     1.0  0.8318929  0.9447761666666666  0.9169259999999998  1.0000
  Li  Li719     1.0  0.9681071  0.9447761666666666  0.8335926666666665  1.0000
  Li  Li720     1.0  0.9681071  0.7218904999999999  0.8335926666666665  1.0000
  P   P357      1.0  0.93075  0.6666666666666666  0.9164184999999998  1.0000
  P   P358      1.0  0.86925  0.6666666666666666  0.9997518333333333  1.0000
  P   P359      1.0  0.83075  0.8333333333333331  0.9164184999999998  1.0000
  P   P360      1.0  0.96925  0.8333333333333331  0.9997518333333333  1.0000
  N   N357      1.0  0.8774  0.6666666666666666  0.8901959999999999  1.0000
  N   N358      1.0  0.9226  0.6666666666666666  0.9735293333333331  1.0000
  N   N359      1.0  0.9773999999999999  0.8333333333333331  0.8901959999999999  1.0000
  N   N360      1.0  0.8225999999999999  0.8333333333333331  0.9735293333333331  1.0000
  O   O713      1.0  0.96109  0.7130156666666666  0.9031834999999999  1.0000
  O   O714      1.0  0.96109  0.9536509999999998  0.9031834999999999  1.0000
  O   O715      1.0  0.8389099999999999  0.9536509999999998  0.9865168333333332  1.0000
  O   O716      1.0  0.8389099999999999  0.7130156666666666  0.9865168333333332  1.0000
  O   O717      1.0  0.8610899999999999  0.8796823333333332  0.9031834999999999  1.0000
  O   O718      1.0  0.8610899999999999  0.7869843333333332  0.9031834999999999  1.0000
  O   O719      1.0  0.93891  0.7869843333333332  0.9865168333333332  1.0000
  O   O720      1.0  0.93891  0.8796823333333332  0.9865168333333332  1.0000
